
This summary information was generated by AeroDyn on 10-Jun-2019 at 13:53:25.

======  General Options  ============================================================================
            1  WakeMod        - Type of wake/induction model: Blade-Element/Momentum Theory
            2  AFAeroMod      - Type of blade airfoil aerodynamics model: Beddoes-Leishman unsteady model
            0  TwrPotent      - Type tower influence on wind based on potential flow around the tower: none
            F  TwrShadow      - Calculate tower influence on wind based on downstream tower shadow? No
            F  TwrAero        - Calculate tower aerodynamic loads? No
======  Blade-Element/Momentum Theory Options  ======================================================
            2  SkewMod        - Type of skewed-wake correction model: Pitt/Peters
            T  TipLoss        - Use the Prandtl tip-loss model? Yes
            T  HubLoss        - Use the Prandtl hub-loss model? Yes
            T  TanInd         - Include tangential induction in BEMT calculations? Yes
            F  AIDrag         - Include the drag term in the axial-induction calculation? No
            F  AIDrag         - Include the drag term in the tangential-induction calculation? No
   5.0000E-10  IndToler       - Convergence tolerance for BEM induction factors (radians)
======  Beddoes-Leishman Unsteady Airfoil Aerodynamics Options  =====================================
            3  UAMod          - Unsteady Aero Model: Minemma/Pierce variant (changes in Cc and Cm)
            T  FLookup        - Use a lookup for f'? Yes
======  Outputs  ====================================================================================
            0  NBlOuts        - Number of blade nodes selected for output
            0  NTwOuts        - Number of tower nodes selected for output
               Requested Output Channels:
               Col   Parameter  Units
               ----  ---------  -----
                  0  Time       (s)       
                  1  RtSkew     (deg)     
                  2  RtSpeed    (rpm)     
                  3  RtAeroPwr  (W)       
                  4  RtVAvgxh   (m/s)     
                  5  RtVAvgyh   (m/s)     
                  6  RtVAvgzh   (m/s)     
                  7  RTAeroFxh  (N)       
                  8  RTAeroFyh  (N)       
                  9  RTAeroFzh  (N)       
                 10  RTAeroMxh  (N m)     
                 11  RTAeroMyh  (N m)     
                 12  RTAeroMzh  (N m)     
                 13  RtTSR      (-)       
                 14  RtArea     (m^2)     
