
This summary information was generated by AeroDyn on 18-Jun-2019 at 11:11:38.

======  General Options  ============================================================================
            1  WakeMod        - Type of wake/induction model: Blade-Element/Momentum Theory
            2  AFAeroMod      - Type of blade airfoil aerodynamics model: Beddoes-Leishman unsteady model
            0  TwrPotent      - Type tower influence on wind based on potential flow around the tower: none
            F  TwrShadow      - Calculate tower influence on wind based on downstream tower shadow? No
            F  TwrAero        - Calculate tower aerodynamic loads? No
======  Blade-Element/Momentum Theory Options  ======================================================
            2  SkewMod        - Type of skewed-wake correction model: Pitt/Peters
            T  TipLoss        - Use the Prandtl tip-loss model? Yes
            T  HubLoss        - Use the Prandtl hub-loss model? Yes
            T  TanInd         - Include tangential induction in BEMT calculations? Yes
            F  AIDrag         - Include the drag term in the axial-induction calculation? No
            F  AIDrag         - Include the drag term in the tangential-induction calculation? No
   5.0000E-10  IndToler       - Convergence tolerance for BEM induction factors (radians)
======  Beddoes-Leishman Unsteady Airfoil Aerodynamics Options  =====================================
            3  UAMod          - Unsteady Aero Model: Minemma/Pierce variant (changes in Cc and Cm)
            T  FLookup        - Use a lookup for f'? Yes
======  Outputs  ====================================================================================
            0  NBlOuts        - Number of blade nodes selected for output
            0  NTwOuts        - Number of tower nodes selected for output
               Requested Output Channels:
               Col   Parameter  Units
               ----  ---------  -----
                  0  Time       (s)       
                  1  RtSkew     (deg)     
                  2  RtSpeed    (rpm)     
                  3  RtAeroPwr  (W)       
                  4  B1Pitch    (deg)     
                  5  B2Pitch    (deg)     
                  6  B2Pitch    (deg)     
                  7  RtVAvgxh   (m/s)     
                  8  RtVAvgyh   (m/s)     
                  9  RtVAvgzh   (m/s)     
                 10  RTAeroFxh  (N)       
                 11  RTAeroFyh  (N)       
                 12  RTAeroFzh  (N)       
                 13  RTAeroMxh  (N m)     
                 14  RTAeroMyh  (N m)     
                 15  RTAeroMzh  (N m)     
                 16  RtTSR      (-)       
                 17  RtAeroCp   (-)       
