
This file of echoed input was generated by AeroDyn on 04-Jun-2019 at 12:07:55.

Data from AeroDyn primary input file "input/ad_primary_example.inp":


               FTitle         - File Header: File Description (line 2)
  "TESTING 123 line that will be printed in the output file and written to the screen."

            T  Echo           - Echo flag
               DTAero         - Time interval for aerodynamic calculations {or default} (s)
  "0.0125"
            1  WakeMod        - Type of wake/induction model {0=none, 1=BEMT} (-)
            1  AFAeroMod      - Type of airfoil aerodynamics model {1=steady model, 2=Beddoes-Leishman unsteady model} (-)
            0  TwrPotent      - Type tower influence on wind based on potential flow around the tower {0=none, 1=baseline potential flow, 2=potential flow with Bak correction} (-)
            F  TwrShadow      - Calculate tower influence on wind based on downstream tower shadow? (flag)
            F  TwrAero        - Calculate tower aerodynamic loads? (flag)
            F  FrozenWake     - Assume frozen wake during linearization? (flag)
            T  CavitCheck     - Perform cavitation check? (flag)
            T  IncludeAddedMa - Include added mass effects? (flag)
   1.0000E+00  CaBlade        - Added mass coefficient {default= 1}

   1.2460E+00  AirDens        - Air density (kg/m^3)
   1.4639E-05  KinVisc        - Kinematic air viscosity (m^2/s)
   3.3330E+02  SpdSound       - Speed of sound (m/s)
   1.0132E+05  Patm           - Atmospheric pressure (Pa)
   2.0000E+03  Pvap           - Vapour pressure of fluid (Pa)
   6.0000E-01  FluidDepth     - Water depth above mid-hub height (MHK only, for cavitation check) (m)

            1  SkewMod        - Type of skewed-wake correction model {1=uncoupled, 2=Pitt/Peters, 3=coupled} [used only when WakeMod=1] (-)
            F  TipLoss        - Use the Prandtl tip-loss model? [used only when WakeMod=1] (flag)
            F  HubLoss        - Use the Prandtl hub-loss model? [used only when WakeMod=1] (flag)
            T  TanInd         - Include tangential induction in BEMT calculations? [used only when WakeMod=1] (flag)
            T  AIDrag         - Include the drag term in the axial-induction calculation? [used only when WakeMod=1] (flag)
            T  TIDrag         - Include the drag term in the tangential-induction calculation? [used only when WakeMod=1 and TanInd=TRUE] (flag)
               IndToler       - Convergence tolerance for BEM induction factors [used only when WakeMod=1] (-)
  "1E-05"
   1.0000E+02  MaxIter        - Maximum number of iteration steps [used only when WakeMod=1] (-)

            1  UAMod          - Unsteady Aero Model Switch (switch) {1=Baseline model (Original), 2=Gonzalez's variant (changes in Cn,Cc,Cm), 3=Minemma/Pierce variant (changes in Cc and Cm)} [used only when AFAreoMod=2] (-)
            F  FLookup        - Flag to indicate whether a lookup for f' will be calculated (TRUE) or whether best-fit exponential equations will be used (FALSE); if FALSE S1-S4 must be provided in airfoil input files [used only when AFAreoMod=2] (flag)

   1.0000E+00  InCol_Alfa     - The column in the airfoil tables that contains the angle of attack (-)
   2.0000E+00  InCol_Cl       - The column in the airfoil tables that contains the lift coefficient (-)
   3.0000E+00  InCol_Cd       - The column in the airfoil tables that contains the drag coefficient (-)
   4.0000E+00  InCol_Cm       - The column in the airfoil tables that contains the pitching-moment coefficient; use zero if there is no Cm column (-)
   5.0000E+00  InCol_Cpmin    - The column in the airfoil tables that contains the drag coefficient; use zero if there is no Cpmin column (-)
           23  NumAFfiles     - Number of airfoil files used (-)
               AFNames(1)     - Airfoil 1 file name
  "ad_airfoil_example.inp"
               AFNames(2)     - Airfoil 2 file name
  "ad_airfoil_example.inp"
               AFNames(3)     - Airfoil 3 file name
  "ad_airfoil_example.inp"
               AFNames(4)     - Airfoil 4 file name
  "ad_airfoil_example.inp"
               AFNames(5)     - Airfoil 5 file name
  "ad_airfoil_example.inp"
               AFNames(6)     - Airfoil 6 file name
  "ad_airfoil_example.inp"
               AFNames(7)     - Airfoil 7 file name
  "ad_airfoil_example.inp"
               AFNames(8)     - Airfoil 8 file name
  "ad_airfoil_example.inp"
               AFNames(9)     - Airfoil 9 file name
  "ad_airfoil_example.inp"
               AFNames(10)    - Airfoil 10 file name
  "ad_airfoil_example.inp"
               AFNames(11)    - Airfoil 11 file name
  "ad_airfoil_example.inp"
               AFNames(12)    - Airfoil 12 file name
  "ad_airfoil_example.inp"
               AFNames(13)    - Airfoil 13 file name
  "ad_airfoil_example.inp"
               AFNames(14)    - Airfoil 14 file name
  "ad_airfoil_example.inp"
               AFNames(15)    - Airfoil 15 file name
  "ad_airfoil_example.inp"
               AFNames(16)    - Airfoil 16 file name
  "ad_airfoil_example.inp"
               AFNames(17)    - Airfoil 17 file name
  "ad_airfoil_example.inp"
               AFNames(18)    - Airfoil 18 file name
  "ad_airfoil_example.inp"
               AFNames(19)    - Airfoil 19 file name
  "ad_airfoil_example.inp"
               AFNames(20)    - Airfoil 20 file name
  "ad_airfoil_example.inp"
               AFNames(21)    - Airfoil 21 file name
  "ad_airfoil_example.inp"
               AFNames(22)    - Airfoil 22 file name
  "ad_airfoil_example.inp"
               AFNames(23)    - Airfoil 23 file name
  "ad_airfoil_example.inp"

            T  UseBlCm        - Include aerodynamic pitching moment in calculations? (flag)
               ADBlFile(1)    - Name of file containing distributed aerodynamic properties for blade 1
  "ad_blade_example.inp"
               ADBlFile(2)    - Name of file containing distributed aerodynamic properties for blade 2
  "ad_blade_example.inp"
               ADBlFile(3)    - Name of file containing distributed aerodynamic properties for blade 3
  "ad_blade_example.inp"

            0  NumTwrNds      - Number of tower nodes used in the analysis (-)



            T  SumPrint       - Generate a summary file listing input options and interpolated properties to <rootname>.AD.sum? (flag)
            3  NBlOuts        - Number of blade node outputs [0 - 9] (-)
               BlOutNd        - Blade nodes whose values will be output (-)
            2           10           20
            0  NTwOuts        - Number of tower node outputs [0 - 9] (-)
               TwOutNd        - Tower nodes whose values will be output (-)


               OutList        - List of user-requested output channels
  "B1N1VDisx, B1N1VDisy, B1N1VDisz"
               OutList        - List of user-requested output channels
  "B1N2VDisx, B1N2VDisy, B1N2VDisz"
               OutList        - List of user-requested output channels
  "B1N3VDisx, B1N3VDisy, B1N3VDisz"
               OutList        - List of user-requested output channels
  "B1N1STVx,  B1N1STVy,  B1N1STVz"
               OutList        - List of user-requested output channels
  "B1N2STVx,  B1N2STVy,  B1N2STVz"
               OutList        - List of user-requested output channels
  "B1N3STVx,  B1N3STVy,  B1N3STVz"
               OutList        - List of user-requested output channels
  "RtSpeed, RtSkew"
               OutList        - List of user-requested output channels
  "B1N1AxInd, B1N2AxInd, B1N3AxInd"
               OutList        - List of user-requested output channels
  "B1N1Alpha, B1N2Alpha, B1N3Alpha"
               OutList        - List of user-requested output channels
  "B1N1Theta, B1N2Theta, B1N3Theta"
               OutList        - List of user-requested output channels
  "RTAeroFxh, RTAeroFyh, RTAeroFzh"
               OutList        - List of user-requested output channels
  "RTAeroMxh, RTAeroMyh, RTAeroMzh"
               OutList        - List of user-requested output channels
  "RTAeroCp, RTAeroCq, RTAeroCt"
               OutList        - List of user-requested output channels
  "END"



           23  NumBlNds       - Number of blade nodes used in the analysis (-)


   0.0000    0.0000    0.0000    0.0000    0.0000    0.2190         1
   0.1360    0.0000    0.0000    0.0000    0.0000    0.2190         1
   0.4481    0.0000    0.0000    0.0000   -0.0980    0.1810         1
   0.8001    0.0000    0.0000    0.0000   19.4230    0.7140         3
   1.0767    0.0000    0.0000    0.0000   14.3180    0.7110         4
   1.2779    0.0000    0.0000    0.0000   10.9710    0.6910         5
   1.4958    0.0000    0.0000    0.0000    8.2440    0.6680         6
   1.7137    0.0000    0.0000    0.0000    6.1640    0.6470         7
   1.9149    0.0000    0.0000    0.0000    4.6890    0.6270         7
   2.1160    0.0000    0.0000    0.0000    3.4990    0.6060         8
   2.3340    0.0000    0.0000    0.0000    2.4780    0.5840         8
   2.5520    0.0000    0.0000    0.0000    1.6860    0.5610         8
   2.7530    0.0000    0.0000    0.0000    1.1150    0.5420         8
   2.9542    0.0000    0.0000    0.0000    0.6660    0.5220         8
   3.1721    0.0000    0.0000    0.0000    0.2670    0.4990         8
   3.3900    0.0000    0.0000    0.0000   -0.0790    0.4780         8
   3.5912    0.0000    0.0000    0.0000   -0.3810    0.4570         9
   3.7924    0.0000    0.0000    0.0000   -0.6790    0.4370         9
   3.9684    0.0000    0.0000    0.0000   -0.9330    0.4190         9
   4.1444    0.0000    0.0000    0.0000   -1.1840    0.4010        10
   4.3456    0.0000    0.0000    0.0000   -1.4660    0.3810        10
   4.5216    0.0000    0.0000    0.0000   -1.7110    0.3630        10
   4.5970    0.0000    0.0000    0.0000   -1.7110    0.3630        10



           23  NumBlNds       - Number of blade nodes used in the analysis (-)


   0.0000    0.0000    0.0000    0.0000    0.0000    0.2190         1
   0.1360    0.0000    0.0000    0.0000    0.0000    0.2190         1
   0.4481    0.0000    0.0000    0.0000   -0.0980    0.1810         1
   0.8001    0.0000    0.0000    0.0000   19.4230    0.7140         3
   1.0767    0.0000    0.0000    0.0000   14.3180    0.7110         4
   1.2779    0.0000    0.0000    0.0000   10.9710    0.6910         5
   1.4958    0.0000    0.0000    0.0000    8.2440    0.6680         6
   1.7137    0.0000    0.0000    0.0000    6.1640    0.6470         7
   1.9149    0.0000    0.0000    0.0000    4.6890    0.6270         7
   2.1160    0.0000    0.0000    0.0000    3.4990    0.6060         8
   2.3340    0.0000    0.0000    0.0000    2.4780    0.5840         8
   2.5520    0.0000    0.0000    0.0000    1.6860    0.5610         8
   2.7530    0.0000    0.0000    0.0000    1.1150    0.5420         8
   2.9542    0.0000    0.0000    0.0000    0.6660    0.5220         8
   3.1721    0.0000    0.0000    0.0000    0.2670    0.4990         8
   3.3900    0.0000    0.0000    0.0000   -0.0790    0.4780         8
   3.5912    0.0000    0.0000    0.0000   -0.3810    0.4570         9
   3.7924    0.0000    0.0000    0.0000   -0.6790    0.4370         9
   3.9684    0.0000    0.0000    0.0000   -0.9330    0.4190         9
   4.1444    0.0000    0.0000    0.0000   -1.1840    0.4010        10
   4.3456    0.0000    0.0000    0.0000   -1.4660    0.3810        10
   4.5216    0.0000    0.0000    0.0000   -1.7110    0.3630        10
   4.5970    0.0000    0.0000    0.0000   -1.7110    0.3630        10



           23  NumBlNds       - Number of blade nodes used in the analysis (-)


   0.0000    0.0000    0.0000    0.0000    0.0000    0.2190         1
   0.1360    0.0000    0.0000    0.0000    0.0000    0.2190         1
   0.4481    0.0000    0.0000    0.0000   -0.0980    0.1810         1
   0.8001    0.0000    0.0000    0.0000   19.4230    0.7140         3
   1.0767    0.0000    0.0000    0.0000   14.3180    0.7110         4
   1.2779    0.0000    0.0000    0.0000   10.9710    0.6910         5
   1.4958    0.0000    0.0000    0.0000    8.2440    0.6680         6
   1.7137    0.0000    0.0000    0.0000    6.1640    0.6470         7
   1.9149    0.0000    0.0000    0.0000    4.6890    0.6270         7
   2.1160    0.0000    0.0000    0.0000    3.4990    0.6060         8
   2.3340    0.0000    0.0000    0.0000    2.4780    0.5840         8
   2.5520    0.0000    0.0000    0.0000    1.6860    0.5610         8
   2.7530    0.0000    0.0000    0.0000    1.1150    0.5420         8
   2.9542    0.0000    0.0000    0.0000    0.6660    0.5220         8
   3.1721    0.0000    0.0000    0.0000    0.2670    0.4990         8
   3.3900    0.0000    0.0000    0.0000   -0.0790    0.4780         8
   3.5912    0.0000    0.0000    0.0000   -0.3810    0.4570         9
   3.7924    0.0000    0.0000    0.0000   -0.6790    0.4370         9
   3.9684    0.0000    0.0000    0.0000   -0.9330    0.4190         9
   4.1444    0.0000    0.0000    0.0000   -1.1840    0.4010        10
   4.3456    0.0000    0.0000    0.0000   -1.4660    0.3810        10
   4.5216    0.0000    0.0000    0.0000   -1.7110    0.3630        10
   4.5970    0.0000    0.0000    0.0000   -1.7110    0.3630        10
--
Contents of "input/ad_airfoil_example.inp":
 DEFAULT         = InterpOrd           
 1               = NonDimArea          
 67              = NumCoords           
0.25       0
1.000000   0.000000
0.996203   0.000487
0.985190   0.002373
0.967844   0.005960
0.945073   0.011024
0.917488   0.017033
0.885293   0.023458
0.848455   0.030280
0.807470   0.037766
0.763042   0.045974
0.715952   0.054872
0.667064   0.064353
0.617331   0.074214
0.567830   0.084095
0.519832   0.093268
0.474243   0.099392
0.428461   0.101760
0.382612   0.101840
0.337260   0.100070
0.292970   0.096703
0.250247   0.091908
0.209576   0.085851
0.171409   0.078687
0.136174   0.070580
0.104263   0.061697
0.076035   0.052224
0.051823   0.042352
0.031910   0.032299
0.016590   0.022290
0.006026   0.012615
0.000658   0.003723
0.000204   0.001942
0.000000  -0.000020
0.000213  -0.001794
0.001045  -0.003477
0.001208  -0.003724
0.002398  -0.005266
0.009313  -0.011499
0.023230  -0.020399
0.042320  -0.030269
0.065877  -0.040821
0.093426  -0.051923
0.124111  -0.063082
0.157653  -0.073730
0.193738  -0.083567
0.231914  -0.092442
0.271438  -0.099905
0.311968  -0.105281
0.353370  -0.108181
0.395329  -0.108011
0.438273  -0.104552
0.481920  -0.097347
0.527928  -0.086571
0.576211  -0.073979
0.626092  -0.060644
0.676744  -0.047441
0.727211  -0.035100
0.776432  -0.024204
0.823285  -0.015163
0.866630  -0.008204
0.905365  -0.003363
0.938474  -0.000487
0.965086   0.000743
0.984478   0.000775
0.996141   0.000290
1.000000   0.000000
 1               = NumTabs             
 0.75            = Re                  
 0               = Ctrl                
 true            = InclUAdata          
 -0.38           = alpha0              
 15.3            = alpha1              
 -15.3           = alpha2              
 1               = eta_e               
 7.12499         = C_nalpha            
 2               = T_f0                
 2               = T_f0                
 7               = T_V0                
 7               = T_V0                
 1.6             = T_p                 
 1.6             = T_p                 
 9               = T_VL                
 9               = T_VL                
 Default         = b1                  
 Default         = b2                  
 0.5             = b5                  
 0.5             = b5                  
 Default         = A1                  
 Default         = A2                  
 Default         = A5                  
 18.269          = S1                  
 -11.324         = S2                  
 18.269          = S3                  
 -11.324         = S4                  
 1.9408          = Cn1                 
 -0.8            = Cn2                 
 Default         = St_sh               
 0.0016          = Cd0                 
 -0.0328         = Cm0                 
 0               = k0                  
 0               = k1                  
 0               = k2                  
 0               = k3                  
 0               = k1_hat              
 Default         = x_cp_bar            
 DEFAULT         = UACutout            
 DEFAULT         = filtCutOff          
 63              = NumAlf              
-180 	0.0 	0.1748	0.0                 0.0
-170 	0.23 	0.2116 	0.4                 0.0
-160 	0.46 	0.3172 	0.1018              0.0
-150 	0.494 	0.4784 	0.1333              0.0
-140 	0.51 	0.6743 	0.1727              0.0
-130 	0.486 	0.8799 	0.2132              0.0
-120 	0.415 	1.0684 	0.2498              0.0
-110 	0.302 	1.2148 	0.2779              0.0
-100 	0.159 	1.2989 	0.2933              0.0
-90 	0	1.308	0.2936              0.0
-80 	-0.159 	1.2989 	0.2933              0.0
-70 	-0.302 	1.2148 	0.2779              0.0
-60 	-0.415 	1.0684 	0.2498              0.0
-50 	-0.486 	0.8799 	0.2132              0.0
-40	-0.51 	0.6743 	0.1727              0.0
-30 	-0.494 	0.4784 	0.1333              0.0
-21.1	-0.56 	0.3027 	0.0612              0.0
-19.1 	-0.67 	0.3069 	0.0904              0.0
-17.1 	-0.79 	0.1928 	0.0293              0.0
-15.2 	-0.84 	0.0898 	-0.009              0.0
-13.2 	-0.7 	0.0553 	-0.0045             0.0
-11.1 	-0.63 	0.039 	-0.0044             0.0
-9.2 	-0.56	0.0233 	-0.0051             0.0
-7.1 	-0.64 	0.0131 	0.0018              0.0
-5.1 	-0.42 	0.0134 	-0.0216             0.0
-3.1 	-0.21 	0.0119 	-0.0282             0.0
-0.9 	0.05 	.0122 	-0.0346             0.0
1 	0.3 	0.0116 	-0.0405             0.0
3.1 	0.54 	0.0144 	-0.0455             0.0
5.2 	0.777	0.0146 	-0.0507             0.0
6.15 	0.854 	0.0154 	-0.04555            0.0
7.1 	0.906 	0.0162 	-0.0404             0.0
8.15 	0.888 	0.0266	-0.03625            0.0
9.2 	0.91 	0.037 	-0.0321             0.0
10.3 	0.927	0.045 	-0.0281             0.0
11.18 	0.948 	0.052 	-0.0284             0.0
12.2 	0.957 	0.067 	-0.0322             0.0
13.2 	0.987 	0.074 	-0.0361             0.0
14.3 	1.009	0.089 	-0.0363             0.0
15.3 	0.948 	0.112 	-0.0393             0.0
16.1 	0.918 	0.123 	-0.0398             0.0
17.1 	0.815 	0.175 	-0.0983             0.0
18.1 	0.7 	0.257 	-0.1242             0.0
19.1 	0.627 	0.305 	-0.1155             0.0
25 	0.528 	0.454 	-0.186083486        0.0
30 	0.631	0.4784 	-0.2459             0.0
35 	0.592 	0.524 	-0.2636             0.0
40 	0.554 	0.554 	-0.2813             0.0
45 	0.506 	0.61 	-0.29735            0.0
50 	0.442 	0.807 	-0.3134             0.0
60 	0.296 	0.987 	-0.3388             0.0
70 	0.193 	1.172 	-0.3557             0.0
80 	0.082 	1.236 	-0.363              0.0
90 	0 	1.249 	-0.3604             0.0
100 	-0.159 	1.2989 	-0.36               0.0
110 	-0.302 	1.2148 	-0.3446             0.0
120 	-0.415 	1.0684 	-0.3166             0.0
130 	-0.486 	0.8799 	-0.28               0.0
140 	-0.51 	0.6743 	-0.2394             0.0
150 	-0.494 	0.4784 	-0.2001             0.0
160 	-0.46 	0.3172 	-0.1685             0.0
170 	-0.23 	0.2116 	-0.5                0.0
180 	0.0 	0.1748	0.0                 0.0
--
Contents of "input/ad_airfoil_example.inp":
 DEFAULT         = InterpOrd           
 1               = NonDimArea          
 67              = NumCoords           
0.25       0
1.000000   0.000000
0.996203   0.000487
0.985190   0.002373
0.967844   0.005960
0.945073   0.011024
0.917488   0.017033
0.885293   0.023458
0.848455   0.030280
0.807470   0.037766
0.763042   0.045974
0.715952   0.054872
0.667064   0.064353
0.617331   0.074214
0.567830   0.084095
0.519832   0.093268
0.474243   0.099392
0.428461   0.101760
0.382612   0.101840
0.337260   0.100070
0.292970   0.096703
0.250247   0.091908
0.209576   0.085851
0.171409   0.078687
0.136174   0.070580
0.104263   0.061697
0.076035   0.052224
0.051823   0.042352
0.031910   0.032299
0.016590   0.022290
0.006026   0.012615
0.000658   0.003723
0.000204   0.001942
0.000000  -0.000020
0.000213  -0.001794
0.001045  -0.003477
0.001208  -0.003724
0.002398  -0.005266
0.009313  -0.011499
0.023230  -0.020399
0.042320  -0.030269
0.065877  -0.040821
0.093426  -0.051923
0.124111  -0.063082
0.157653  -0.073730
0.193738  -0.083567
0.231914  -0.092442
0.271438  -0.099905
0.311968  -0.105281
0.353370  -0.108181
0.395329  -0.108011
0.438273  -0.104552
0.481920  -0.097347
0.527928  -0.086571
0.576211  -0.073979
0.626092  -0.060644
0.676744  -0.047441
0.727211  -0.035100
0.776432  -0.024204
0.823285  -0.015163
0.866630  -0.008204
0.905365  -0.003363
0.938474  -0.000487
0.965086   0.000743
0.984478   0.000775
0.996141   0.000290
1.000000   0.000000
 1               = NumTabs             
 0.75            = Re                  
 0               = Ctrl                
 true            = InclUAdata          
 -0.38           = alpha0              
 15.3            = alpha1              
 -15.3           = alpha2              
 1               = eta_e               
 7.12499         = C_nalpha            
 2               = T_f0                
 2               = T_f0                
 7               = T_V0                
 7               = T_V0                
 1.6             = T_p                 
 1.6             = T_p                 
 9               = T_VL                
 9               = T_VL                
 Default         = b1                  
 Default         = b2                  
 0.5             = b5                  
 0.5             = b5                  
 Default         = A1                  
 Default         = A2                  
 Default         = A5                  
 18.269          = S1                  
 -11.324         = S2                  
 18.269          = S3                  
 -11.324         = S4                  
 1.9408          = Cn1                 
 -0.8            = Cn2                 
 Default         = St_sh               
 0.0016          = Cd0                 
 -0.0328         = Cm0                 
 0               = k0                  
 0               = k1                  
 0               = k2                  
 0               = k3                  
 0               = k1_hat              
 Default         = x_cp_bar            
 DEFAULT         = UACutout            
 DEFAULT         = filtCutOff          
 63              = NumAlf              
-180 	0.0 	0.1748	0.0                 0.0
-170 	0.23 	0.2116 	0.4                 0.0
-160 	0.46 	0.3172 	0.1018              0.0
-150 	0.494 	0.4784 	0.1333              0.0
-140 	0.51 	0.6743 	0.1727              0.0
-130 	0.486 	0.8799 	0.2132              0.0
-120 	0.415 	1.0684 	0.2498              0.0
-110 	0.302 	1.2148 	0.2779              0.0
-100 	0.159 	1.2989 	0.2933              0.0
-90 	0	1.308	0.2936              0.0
-80 	-0.159 	1.2989 	0.2933              0.0
-70 	-0.302 	1.2148 	0.2779              0.0
-60 	-0.415 	1.0684 	0.2498              0.0
-50 	-0.486 	0.8799 	0.2132              0.0
-40	-0.51 	0.6743 	0.1727              0.0
-30 	-0.494 	0.4784 	0.1333              0.0
-21.1	-0.56 	0.3027 	0.0612              0.0
-19.1 	-0.67 	0.3069 	0.0904              0.0
-17.1 	-0.79 	0.1928 	0.0293              0.0
-15.2 	-0.84 	0.0898 	-0.009              0.0
-13.2 	-0.7 	0.0553 	-0.0045             0.0
-11.1 	-0.63 	0.039 	-0.0044             0.0
-9.2 	-0.56	0.0233 	-0.0051             0.0
-7.1 	-0.64 	0.0131 	0.0018              0.0
-5.1 	-0.42 	0.0134 	-0.0216             0.0
-3.1 	-0.21 	0.0119 	-0.0282             0.0
-0.9 	0.05 	.0122 	-0.0346             0.0
1 	0.3 	0.0116 	-0.0405             0.0
3.1 	0.54 	0.0144 	-0.0455             0.0
5.2 	0.777	0.0146 	-0.0507             0.0
6.15 	0.854 	0.0154 	-0.04555            0.0
7.1 	0.906 	0.0162 	-0.0404             0.0
8.15 	0.888 	0.0266	-0.03625            0.0
9.2 	0.91 	0.037 	-0.0321             0.0
10.3 	0.927	0.045 	-0.0281             0.0
11.18 	0.948 	0.052 	-0.0284             0.0
12.2 	0.957 	0.067 	-0.0322             0.0
13.2 	0.987 	0.074 	-0.0361             0.0
14.3 	1.009	0.089 	-0.0363             0.0
15.3 	0.948 	0.112 	-0.0393             0.0
16.1 	0.918 	0.123 	-0.0398             0.0
17.1 	0.815 	0.175 	-0.0983             0.0
18.1 	0.7 	0.257 	-0.1242             0.0
19.1 	0.627 	0.305 	-0.1155             0.0
25 	0.528 	0.454 	-0.186083486        0.0
30 	0.631	0.4784 	-0.2459             0.0
35 	0.592 	0.524 	-0.2636             0.0
40 	0.554 	0.554 	-0.2813             0.0
45 	0.506 	0.61 	-0.29735            0.0
50 	0.442 	0.807 	-0.3134             0.0
60 	0.296 	0.987 	-0.3388             0.0
70 	0.193 	1.172 	-0.3557             0.0
80 	0.082 	1.236 	-0.363              0.0
90 	0 	1.249 	-0.3604             0.0
100 	-0.159 	1.2989 	-0.36               0.0
110 	-0.302 	1.2148 	-0.3446             0.0
120 	-0.415 	1.0684 	-0.3166             0.0
130 	-0.486 	0.8799 	-0.28               0.0
140 	-0.51 	0.6743 	-0.2394             0.0
150 	-0.494 	0.4784 	-0.2001             0.0
160 	-0.46 	0.3172 	-0.1685             0.0
170 	-0.23 	0.2116 	-0.5                0.0
180 	0.0 	0.1748	0.0                 0.0
--
Contents of "input/ad_airfoil_example.inp":
 DEFAULT         = InterpOrd           
 1               = NonDimArea          
 67              = NumCoords           
0.25       0
1.000000   0.000000
0.996203   0.000487
0.985190   0.002373
0.967844   0.005960
0.945073   0.011024
0.917488   0.017033
0.885293   0.023458
0.848455   0.030280
0.807470   0.037766
0.763042   0.045974
0.715952   0.054872
0.667064   0.064353
0.617331   0.074214
0.567830   0.084095
0.519832   0.093268
0.474243   0.099392
0.428461   0.101760
0.382612   0.101840
0.337260   0.100070
0.292970   0.096703
0.250247   0.091908
0.209576   0.085851
0.171409   0.078687
0.136174   0.070580
0.104263   0.061697
0.076035   0.052224
0.051823   0.042352
0.031910   0.032299
0.016590   0.022290
0.006026   0.012615
0.000658   0.003723
0.000204   0.001942
0.000000  -0.000020
0.000213  -0.001794
0.001045  -0.003477
0.001208  -0.003724
0.002398  -0.005266
0.009313  -0.011499
0.023230  -0.020399
0.042320  -0.030269
0.065877  -0.040821
0.093426  -0.051923
0.124111  -0.063082
0.157653  -0.073730
0.193738  -0.083567
0.231914  -0.092442
0.271438  -0.099905
0.311968  -0.105281
0.353370  -0.108181
0.395329  -0.108011
0.438273  -0.104552
0.481920  -0.097347
0.527928  -0.086571
0.576211  -0.073979
0.626092  -0.060644
0.676744  -0.047441
0.727211  -0.035100
0.776432  -0.024204
0.823285  -0.015163
0.866630  -0.008204
0.905365  -0.003363
0.938474  -0.000487
0.965086   0.000743
0.984478   0.000775
0.996141   0.000290
1.000000   0.000000
 1               = NumTabs             
 0.75            = Re                  
 0               = Ctrl                
 true            = InclUAdata          
 -0.38           = alpha0              
 15.3            = alpha1              
 -15.3           = alpha2              
 1               = eta_e               
 7.12499         = C_nalpha            
 2               = T_f0                
 2               = T_f0                
 7               = T_V0                
 7               = T_V0                
 1.6             = T_p                 
 1.6             = T_p                 
 9               = T_VL                
 9               = T_VL                
 Default         = b1                  
 Default         = b2                  
 0.5             = b5                  
 0.5             = b5                  
 Default         = A1                  
 Default         = A2                  
 Default         = A5                  
 18.269          = S1                  
 -11.324         = S2                  
 18.269          = S3                  
 -11.324         = S4                  
 1.9408          = Cn1                 
 -0.8            = Cn2                 
 Default         = St_sh               
 0.0016          = Cd0                 
 -0.0328         = Cm0                 
 0               = k0                  
 0               = k1                  
 0               = k2                  
 0               = k3                  
 0               = k1_hat              
 Default         = x_cp_bar            
 DEFAULT         = UACutout            
 DEFAULT         = filtCutOff          
 63              = NumAlf              
-180 	0.0 	0.1748	0.0                 0.0
-170 	0.23 	0.2116 	0.4                 0.0
-160 	0.46 	0.3172 	0.1018              0.0
-150 	0.494 	0.4784 	0.1333              0.0
-140 	0.51 	0.6743 	0.1727              0.0
-130 	0.486 	0.8799 	0.2132              0.0
-120 	0.415 	1.0684 	0.2498              0.0
-110 	0.302 	1.2148 	0.2779              0.0
-100 	0.159 	1.2989 	0.2933              0.0
-90 	0	1.308	0.2936              0.0
-80 	-0.159 	1.2989 	0.2933              0.0
-70 	-0.302 	1.2148 	0.2779              0.0
-60 	-0.415 	1.0684 	0.2498              0.0
-50 	-0.486 	0.8799 	0.2132              0.0
-40	-0.51 	0.6743 	0.1727              0.0
-30 	-0.494 	0.4784 	0.1333              0.0
-21.1	-0.56 	0.3027 	0.0612              0.0
-19.1 	-0.67 	0.3069 	0.0904              0.0
-17.1 	-0.79 	0.1928 	0.0293              0.0
-15.2 	-0.84 	0.0898 	-0.009              0.0
-13.2 	-0.7 	0.0553 	-0.0045             0.0
-11.1 	-0.63 	0.039 	-0.0044             0.0
-9.2 	-0.56	0.0233 	-0.0051             0.0
-7.1 	-0.64 	0.0131 	0.0018              0.0
-5.1 	-0.42 	0.0134 	-0.0216             0.0
-3.1 	-0.21 	0.0119 	-0.0282             0.0
-0.9 	0.05 	.0122 	-0.0346             0.0
1 	0.3 	0.0116 	-0.0405             0.0
3.1 	0.54 	0.0144 	-0.0455             0.0
5.2 	0.777	0.0146 	-0.0507             0.0
6.15 	0.854 	0.0154 	-0.04555            0.0
7.1 	0.906 	0.0162 	-0.0404             0.0
8.15 	0.888 	0.0266	-0.03625            0.0
9.2 	0.91 	0.037 	-0.0321             0.0
10.3 	0.927	0.045 	-0.0281             0.0
11.18 	0.948 	0.052 	-0.0284             0.0
12.2 	0.957 	0.067 	-0.0322             0.0
13.2 	0.987 	0.074 	-0.0361             0.0
14.3 	1.009	0.089 	-0.0363             0.0
15.3 	0.948 	0.112 	-0.0393             0.0
16.1 	0.918 	0.123 	-0.0398             0.0
17.1 	0.815 	0.175 	-0.0983             0.0
18.1 	0.7 	0.257 	-0.1242             0.0
19.1 	0.627 	0.305 	-0.1155             0.0
25 	0.528 	0.454 	-0.186083486        0.0
30 	0.631	0.4784 	-0.2459             0.0
35 	0.592 	0.524 	-0.2636             0.0
40 	0.554 	0.554 	-0.2813             0.0
45 	0.506 	0.61 	-0.29735            0.0
50 	0.442 	0.807 	-0.3134             0.0
60 	0.296 	0.987 	-0.3388             0.0
70 	0.193 	1.172 	-0.3557             0.0
80 	0.082 	1.236 	-0.363              0.0
90 	0 	1.249 	-0.3604             0.0
100 	-0.159 	1.2989 	-0.36               0.0
110 	-0.302 	1.2148 	-0.3446             0.0
120 	-0.415 	1.0684 	-0.3166             0.0
130 	-0.486 	0.8799 	-0.28               0.0
140 	-0.51 	0.6743 	-0.2394             0.0
150 	-0.494 	0.4784 	-0.2001             0.0
160 	-0.46 	0.3172 	-0.1685             0.0
170 	-0.23 	0.2116 	-0.5                0.0
180 	0.0 	0.1748	0.0                 0.0
--
Contents of "input/ad_airfoil_example.inp":
 DEFAULT         = InterpOrd           
 1               = NonDimArea          
 67              = NumCoords           
0.25       0
1.000000   0.000000
0.996203   0.000487
0.985190   0.002373
0.967844   0.005960
0.945073   0.011024
0.917488   0.017033
0.885293   0.023458
0.848455   0.030280
0.807470   0.037766
0.763042   0.045974
0.715952   0.054872
0.667064   0.064353
0.617331   0.074214
0.567830   0.084095
0.519832   0.093268
0.474243   0.099392
0.428461   0.101760
0.382612   0.101840
0.337260   0.100070
0.292970   0.096703
0.250247   0.091908
0.209576   0.085851
0.171409   0.078687
0.136174   0.070580
0.104263   0.061697
0.076035   0.052224
0.051823   0.042352
0.031910   0.032299
0.016590   0.022290
0.006026   0.012615
0.000658   0.003723
0.000204   0.001942
0.000000  -0.000020
0.000213  -0.001794
0.001045  -0.003477
0.001208  -0.003724
0.002398  -0.005266
0.009313  -0.011499
0.023230  -0.020399
0.042320  -0.030269
0.065877  -0.040821
0.093426  -0.051923
0.124111  -0.063082
0.157653  -0.073730
0.193738  -0.083567
0.231914  -0.092442
0.271438  -0.099905
0.311968  -0.105281
0.353370  -0.108181
0.395329  -0.108011
0.438273  -0.104552
0.481920  -0.097347
0.527928  -0.086571
0.576211  -0.073979
0.626092  -0.060644
0.676744  -0.047441
0.727211  -0.035100
0.776432  -0.024204
0.823285  -0.015163
0.866630  -0.008204
0.905365  -0.003363
0.938474  -0.000487
0.965086   0.000743
0.984478   0.000775
0.996141   0.000290
1.000000   0.000000
 1               = NumTabs             
 0.75            = Re                  
 0               = Ctrl                
 true            = InclUAdata          
 -0.38           = alpha0              
 15.3            = alpha1              
 -15.3           = alpha2              
 1               = eta_e               
 7.12499         = C_nalpha            
 2               = T_f0                
 2               = T_f0                
 7               = T_V0                
 7               = T_V0                
 1.6             = T_p                 
 1.6             = T_p                 
 9               = T_VL                
 9               = T_VL                
 Default         = b1                  
 Default         = b2                  
 0.5             = b5                  
 0.5             = b5                  
 Default         = A1                  
 Default         = A2                  
 Default         = A5                  
 18.269          = S1                  
 -11.324         = S2                  
 18.269          = S3                  
 -11.324         = S4                  
 1.9408          = Cn1                 
 -0.8            = Cn2                 
 Default         = St_sh               
 0.0016          = Cd0                 
 -0.0328         = Cm0                 
 0               = k0                  
 0               = k1                  
 0               = k2                  
 0               = k3                  
 0               = k1_hat              
 Default         = x_cp_bar            
 DEFAULT         = UACutout            
 DEFAULT         = filtCutOff          
 63              = NumAlf              
-180 	0.0 	0.1748	0.0                 0.0
-170 	0.23 	0.2116 	0.4                 0.0
-160 	0.46 	0.3172 	0.1018              0.0
-150 	0.494 	0.4784 	0.1333              0.0
-140 	0.51 	0.6743 	0.1727              0.0
-130 	0.486 	0.8799 	0.2132              0.0
-120 	0.415 	1.0684 	0.2498              0.0
-110 	0.302 	1.2148 	0.2779              0.0
-100 	0.159 	1.2989 	0.2933              0.0
-90 	0	1.308	0.2936              0.0
-80 	-0.159 	1.2989 	0.2933              0.0
-70 	-0.302 	1.2148 	0.2779              0.0
-60 	-0.415 	1.0684 	0.2498              0.0
-50 	-0.486 	0.8799 	0.2132              0.0
-40	-0.51 	0.6743 	0.1727              0.0
-30 	-0.494 	0.4784 	0.1333              0.0
-21.1	-0.56 	0.3027 	0.0612              0.0
-19.1 	-0.67 	0.3069 	0.0904              0.0
-17.1 	-0.79 	0.1928 	0.0293              0.0
-15.2 	-0.84 	0.0898 	-0.009              0.0
-13.2 	-0.7 	0.0553 	-0.0045             0.0
-11.1 	-0.63 	0.039 	-0.0044             0.0
-9.2 	-0.56	0.0233 	-0.0051             0.0
-7.1 	-0.64 	0.0131 	0.0018              0.0
-5.1 	-0.42 	0.0134 	-0.0216             0.0
-3.1 	-0.21 	0.0119 	-0.0282             0.0
-0.9 	0.05 	.0122 	-0.0346             0.0
1 	0.3 	0.0116 	-0.0405             0.0
3.1 	0.54 	0.0144 	-0.0455             0.0
5.2 	0.777	0.0146 	-0.0507             0.0
6.15 	0.854 	0.0154 	-0.04555            0.0
7.1 	0.906 	0.0162 	-0.0404             0.0
8.15 	0.888 	0.0266	-0.03625            0.0
9.2 	0.91 	0.037 	-0.0321             0.0
10.3 	0.927	0.045 	-0.0281             0.0
11.18 	0.948 	0.052 	-0.0284             0.0
12.2 	0.957 	0.067 	-0.0322             0.0
13.2 	0.987 	0.074 	-0.0361             0.0
14.3 	1.009	0.089 	-0.0363             0.0
15.3 	0.948 	0.112 	-0.0393             0.0
16.1 	0.918 	0.123 	-0.0398             0.0
17.1 	0.815 	0.175 	-0.0983             0.0
18.1 	0.7 	0.257 	-0.1242             0.0
19.1 	0.627 	0.305 	-0.1155             0.0
25 	0.528 	0.454 	-0.186083486        0.0
30 	0.631	0.4784 	-0.2459             0.0
35 	0.592 	0.524 	-0.2636             0.0
40 	0.554 	0.554 	-0.2813             0.0
45 	0.506 	0.61 	-0.29735            0.0
50 	0.442 	0.807 	-0.3134             0.0
60 	0.296 	0.987 	-0.3388             0.0
70 	0.193 	1.172 	-0.3557             0.0
80 	0.082 	1.236 	-0.363              0.0
90 	0 	1.249 	-0.3604             0.0
100 	-0.159 	1.2989 	-0.36               0.0
110 	-0.302 	1.2148 	-0.3446             0.0
120 	-0.415 	1.0684 	-0.3166             0.0
130 	-0.486 	0.8799 	-0.28               0.0
140 	-0.51 	0.6743 	-0.2394             0.0
150 	-0.494 	0.4784 	-0.2001             0.0
160 	-0.46 	0.3172 	-0.1685             0.0
170 	-0.23 	0.2116 	-0.5                0.0
180 	0.0 	0.1748	0.0                 0.0
--
Contents of "input/ad_airfoil_example.inp":
 DEFAULT         = InterpOrd           
 1               = NonDimArea          
 67              = NumCoords           
0.25       0
1.000000   0.000000
0.996203   0.000487
0.985190   0.002373
0.967844   0.005960
0.945073   0.011024
0.917488   0.017033
0.885293   0.023458
0.848455   0.030280
0.807470   0.037766
0.763042   0.045974
0.715952   0.054872
0.667064   0.064353
0.617331   0.074214
0.567830   0.084095
0.519832   0.093268
0.474243   0.099392
0.428461   0.101760
0.382612   0.101840
0.337260   0.100070
0.292970   0.096703
0.250247   0.091908
0.209576   0.085851
0.171409   0.078687
0.136174   0.070580
0.104263   0.061697
0.076035   0.052224
0.051823   0.042352
0.031910   0.032299
0.016590   0.022290
0.006026   0.012615
0.000658   0.003723
0.000204   0.001942
0.000000  -0.000020
0.000213  -0.001794
0.001045  -0.003477
0.001208  -0.003724
0.002398  -0.005266
0.009313  -0.011499
0.023230  -0.020399
0.042320  -0.030269
0.065877  -0.040821
0.093426  -0.051923
0.124111  -0.063082
0.157653  -0.073730
0.193738  -0.083567
0.231914  -0.092442
0.271438  -0.099905
0.311968  -0.105281
0.353370  -0.108181
0.395329  -0.108011
0.438273  -0.104552
0.481920  -0.097347
0.527928  -0.086571
0.576211  -0.073979
0.626092  -0.060644
0.676744  -0.047441
0.727211  -0.035100
0.776432  -0.024204
0.823285  -0.015163
0.866630  -0.008204
0.905365  -0.003363
0.938474  -0.000487
0.965086   0.000743
0.984478   0.000775
0.996141   0.000290
1.000000   0.000000
 1               = NumTabs             
 0.75            = Re                  
 0               = Ctrl                
 true            = InclUAdata          
 -0.38           = alpha0              
 15.3            = alpha1              
 -15.3           = alpha2              
 1               = eta_e               
 7.12499         = C_nalpha            
 2               = T_f0                
 2               = T_f0                
 7               = T_V0                
 7               = T_V0                
 1.6             = T_p                 
 1.6             = T_p                 
 9               = T_VL                
 9               = T_VL                
 Default         = b1                  
 Default         = b2                  
 0.5             = b5                  
 0.5             = b5                  
 Default         = A1                  
 Default         = A2                  
 Default         = A5                  
 18.269          = S1                  
 -11.324         = S2                  
 18.269          = S3                  
 -11.324         = S4                  
 1.9408          = Cn1                 
 -0.8            = Cn2                 
 Default         = St_sh               
 0.0016          = Cd0                 
 -0.0328         = Cm0                 
 0               = k0                  
 0               = k1                  
 0               = k2                  
 0               = k3                  
 0               = k1_hat              
 Default         = x_cp_bar            
 DEFAULT         = UACutout            
 DEFAULT         = filtCutOff          
 63              = NumAlf              
-180 	0.0 	0.1748	0.0                 0.0
-170 	0.23 	0.2116 	0.4                 0.0
-160 	0.46 	0.3172 	0.1018              0.0
-150 	0.494 	0.4784 	0.1333              0.0
-140 	0.51 	0.6743 	0.1727              0.0
-130 	0.486 	0.8799 	0.2132              0.0
-120 	0.415 	1.0684 	0.2498              0.0
-110 	0.302 	1.2148 	0.2779              0.0
-100 	0.159 	1.2989 	0.2933              0.0
-90 	0	1.308	0.2936              0.0
-80 	-0.159 	1.2989 	0.2933              0.0
-70 	-0.302 	1.2148 	0.2779              0.0
-60 	-0.415 	1.0684 	0.2498              0.0
-50 	-0.486 	0.8799 	0.2132              0.0
-40	-0.51 	0.6743 	0.1727              0.0
-30 	-0.494 	0.4784 	0.1333              0.0
-21.1	-0.56 	0.3027 	0.0612              0.0
-19.1 	-0.67 	0.3069 	0.0904              0.0
-17.1 	-0.79 	0.1928 	0.0293              0.0
-15.2 	-0.84 	0.0898 	-0.009              0.0
-13.2 	-0.7 	0.0553 	-0.0045             0.0
-11.1 	-0.63 	0.039 	-0.0044             0.0
-9.2 	-0.56	0.0233 	-0.0051             0.0
-7.1 	-0.64 	0.0131 	0.0018              0.0
-5.1 	-0.42 	0.0134 	-0.0216             0.0
-3.1 	-0.21 	0.0119 	-0.0282             0.0
-0.9 	0.05 	.0122 	-0.0346             0.0
1 	0.3 	0.0116 	-0.0405             0.0
3.1 	0.54 	0.0144 	-0.0455             0.0
5.2 	0.777	0.0146 	-0.0507             0.0
6.15 	0.854 	0.0154 	-0.04555            0.0
7.1 	0.906 	0.0162 	-0.0404             0.0
8.15 	0.888 	0.0266	-0.03625            0.0
9.2 	0.91 	0.037 	-0.0321             0.0
10.3 	0.927	0.045 	-0.0281             0.0
11.18 	0.948 	0.052 	-0.0284             0.0
12.2 	0.957 	0.067 	-0.0322             0.0
13.2 	0.987 	0.074 	-0.0361             0.0
14.3 	1.009	0.089 	-0.0363             0.0
15.3 	0.948 	0.112 	-0.0393             0.0
16.1 	0.918 	0.123 	-0.0398             0.0
17.1 	0.815 	0.175 	-0.0983             0.0
18.1 	0.7 	0.257 	-0.1242             0.0
19.1 	0.627 	0.305 	-0.1155             0.0
25 	0.528 	0.454 	-0.186083486        0.0
30 	0.631	0.4784 	-0.2459             0.0
35 	0.592 	0.524 	-0.2636             0.0
40 	0.554 	0.554 	-0.2813             0.0
45 	0.506 	0.61 	-0.29735            0.0
50 	0.442 	0.807 	-0.3134             0.0
60 	0.296 	0.987 	-0.3388             0.0
70 	0.193 	1.172 	-0.3557             0.0
80 	0.082 	1.236 	-0.363              0.0
90 	0 	1.249 	-0.3604             0.0
100 	-0.159 	1.2989 	-0.36               0.0
110 	-0.302 	1.2148 	-0.3446             0.0
120 	-0.415 	1.0684 	-0.3166             0.0
130 	-0.486 	0.8799 	-0.28               0.0
140 	-0.51 	0.6743 	-0.2394             0.0
150 	-0.494 	0.4784 	-0.2001             0.0
160 	-0.46 	0.3172 	-0.1685             0.0
170 	-0.23 	0.2116 	-0.5                0.0
180 	0.0 	0.1748	0.0                 0.0
--
Contents of "input/ad_airfoil_example.inp":
 DEFAULT         = InterpOrd           
 1               = NonDimArea          
 67              = NumCoords           
0.25       0
1.000000   0.000000
0.996203   0.000487
0.985190   0.002373
0.967844   0.005960
0.945073   0.011024
0.917488   0.017033
0.885293   0.023458
0.848455   0.030280
0.807470   0.037766
0.763042   0.045974
0.715952   0.054872
0.667064   0.064353
0.617331   0.074214
0.567830   0.084095
0.519832   0.093268
0.474243   0.099392
0.428461   0.101760
0.382612   0.101840
0.337260   0.100070
0.292970   0.096703
0.250247   0.091908
0.209576   0.085851
0.171409   0.078687
0.136174   0.070580
0.104263   0.061697
0.076035   0.052224
0.051823   0.042352
0.031910   0.032299
0.016590   0.022290
0.006026   0.012615
0.000658   0.003723
0.000204   0.001942
0.000000  -0.000020
0.000213  -0.001794
0.001045  -0.003477
0.001208  -0.003724
0.002398  -0.005266
0.009313  -0.011499
0.023230  -0.020399
0.042320  -0.030269
0.065877  -0.040821
0.093426  -0.051923
0.124111  -0.063082
0.157653  -0.073730
0.193738  -0.083567
0.231914  -0.092442
0.271438  -0.099905
0.311968  -0.105281
0.353370  -0.108181
0.395329  -0.108011
0.438273  -0.104552
0.481920  -0.097347
0.527928  -0.086571
0.576211  -0.073979
0.626092  -0.060644
0.676744  -0.047441
0.727211  -0.035100
0.776432  -0.024204
0.823285  -0.015163
0.866630  -0.008204
0.905365  -0.003363
0.938474  -0.000487
0.965086   0.000743
0.984478   0.000775
0.996141   0.000290
1.000000   0.000000
 1               = NumTabs             
 0.75            = Re                  
 0               = Ctrl                
 true            = InclUAdata          
 -0.38           = alpha0              
 15.3            = alpha1              
 -15.3           = alpha2              
 1               = eta_e               
 7.12499         = C_nalpha            
 2               = T_f0                
 2               = T_f0                
 7               = T_V0                
 7               = T_V0                
 1.6             = T_p                 
 1.6             = T_p                 
 9               = T_VL                
 9               = T_VL                
 Default         = b1                  
 Default         = b2                  
 0.5             = b5                  
 0.5             = b5                  
 Default         = A1                  
 Default         = A2                  
 Default         = A5                  
 18.269          = S1                  
 -11.324         = S2                  
 18.269          = S3                  
 -11.324         = S4                  
 1.9408          = Cn1                 
 -0.8            = Cn2                 
 Default         = St_sh               
 0.0016          = Cd0                 
 -0.0328         = Cm0                 
 0               = k0                  
 0               = k1                  
 0               = k2                  
 0               = k3                  
 0               = k1_hat              
 Default         = x_cp_bar            
 DEFAULT         = UACutout            
 DEFAULT         = filtCutOff          
 63              = NumAlf              
-180 	0.0 	0.1748	0.0                 0.0
-170 	0.23 	0.2116 	0.4                 0.0
-160 	0.46 	0.3172 	0.1018              0.0
-150 	0.494 	0.4784 	0.1333              0.0
-140 	0.51 	0.6743 	0.1727              0.0
-130 	0.486 	0.8799 	0.2132              0.0
-120 	0.415 	1.0684 	0.2498              0.0
-110 	0.302 	1.2148 	0.2779              0.0
-100 	0.159 	1.2989 	0.2933              0.0
-90 	0	1.308	0.2936              0.0
-80 	-0.159 	1.2989 	0.2933              0.0
-70 	-0.302 	1.2148 	0.2779              0.0
-60 	-0.415 	1.0684 	0.2498              0.0
-50 	-0.486 	0.8799 	0.2132              0.0
-40	-0.51 	0.6743 	0.1727              0.0
-30 	-0.494 	0.4784 	0.1333              0.0
-21.1	-0.56 	0.3027 	0.0612              0.0
-19.1 	-0.67 	0.3069 	0.0904              0.0
-17.1 	-0.79 	0.1928 	0.0293              0.0
-15.2 	-0.84 	0.0898 	-0.009              0.0
-13.2 	-0.7 	0.0553 	-0.0045             0.0
-11.1 	-0.63 	0.039 	-0.0044             0.0
-9.2 	-0.56	0.0233 	-0.0051             0.0
-7.1 	-0.64 	0.0131 	0.0018              0.0
-5.1 	-0.42 	0.0134 	-0.0216             0.0
-3.1 	-0.21 	0.0119 	-0.0282             0.0
-0.9 	0.05 	.0122 	-0.0346             0.0
1 	0.3 	0.0116 	-0.0405             0.0
3.1 	0.54 	0.0144 	-0.0455             0.0
5.2 	0.777	0.0146 	-0.0507             0.0
6.15 	0.854 	0.0154 	-0.04555            0.0
7.1 	0.906 	0.0162 	-0.0404             0.0
8.15 	0.888 	0.0266	-0.03625            0.0
9.2 	0.91 	0.037 	-0.0321             0.0
10.3 	0.927	0.045 	-0.0281             0.0
11.18 	0.948 	0.052 	-0.0284             0.0
12.2 	0.957 	0.067 	-0.0322             0.0
13.2 	0.987 	0.074 	-0.0361             0.0
14.3 	1.009	0.089 	-0.0363             0.0
15.3 	0.948 	0.112 	-0.0393             0.0
16.1 	0.918 	0.123 	-0.0398             0.0
17.1 	0.815 	0.175 	-0.0983             0.0
18.1 	0.7 	0.257 	-0.1242             0.0
19.1 	0.627 	0.305 	-0.1155             0.0
25 	0.528 	0.454 	-0.186083486        0.0
30 	0.631	0.4784 	-0.2459             0.0
35 	0.592 	0.524 	-0.2636             0.0
40 	0.554 	0.554 	-0.2813             0.0
45 	0.506 	0.61 	-0.29735            0.0
50 	0.442 	0.807 	-0.3134             0.0
60 	0.296 	0.987 	-0.3388             0.0
70 	0.193 	1.172 	-0.3557             0.0
80 	0.082 	1.236 	-0.363              0.0
90 	0 	1.249 	-0.3604             0.0
100 	-0.159 	1.2989 	-0.36               0.0
110 	-0.302 	1.2148 	-0.3446             0.0
120 	-0.415 	1.0684 	-0.3166             0.0
130 	-0.486 	0.8799 	-0.28               0.0
140 	-0.51 	0.6743 	-0.2394             0.0
150 	-0.494 	0.4784 	-0.2001             0.0
160 	-0.46 	0.3172 	-0.1685             0.0
170 	-0.23 	0.2116 	-0.5                0.0
180 	0.0 	0.1748	0.0                 0.0
--
Contents of "input/ad_airfoil_example.inp":
 DEFAULT         = InterpOrd           
 1               = NonDimArea          
 67              = NumCoords           
0.25       0
1.000000   0.000000
0.996203   0.000487
0.985190   0.002373
0.967844   0.005960
0.945073   0.011024
0.917488   0.017033
0.885293   0.023458
0.848455   0.030280
0.807470   0.037766
0.763042   0.045974
0.715952   0.054872
0.667064   0.064353
0.617331   0.074214
0.567830   0.084095
0.519832   0.093268
0.474243   0.099392
0.428461   0.101760
0.382612   0.101840
0.337260   0.100070
0.292970   0.096703
0.250247   0.091908
0.209576   0.085851
0.171409   0.078687
0.136174   0.070580
0.104263   0.061697
0.076035   0.052224
0.051823   0.042352
0.031910   0.032299
0.016590   0.022290
0.006026   0.012615
0.000658   0.003723
0.000204   0.001942
0.000000  -0.000020
0.000213  -0.001794
0.001045  -0.003477
0.001208  -0.003724
0.002398  -0.005266
0.009313  -0.011499
0.023230  -0.020399
0.042320  -0.030269
0.065877  -0.040821
0.093426  -0.051923
0.124111  -0.063082
0.157653  -0.073730
0.193738  -0.083567
0.231914  -0.092442
0.271438  -0.099905
0.311968  -0.105281
0.353370  -0.108181
0.395329  -0.108011
0.438273  -0.104552
0.481920  -0.097347
0.527928  -0.086571
0.576211  -0.073979
0.626092  -0.060644
0.676744  -0.047441
0.727211  -0.035100
0.776432  -0.024204
0.823285  -0.015163
0.866630  -0.008204
0.905365  -0.003363
0.938474  -0.000487
0.965086   0.000743
0.984478   0.000775
0.996141   0.000290
1.000000   0.000000
 1               = NumTabs             
 0.75            = Re                  
 0               = Ctrl                
 true            = InclUAdata          
 -0.38           = alpha0              
 15.3            = alpha1              
 -15.3           = alpha2              
 1               = eta_e               
 7.12499         = C_nalpha            
 2               = T_f0                
 2               = T_f0                
 7               = T_V0                
 7               = T_V0                
 1.6             = T_p                 
 1.6             = T_p                 
 9               = T_VL                
 9               = T_VL                
 Default         = b1                  
 Default         = b2                  
 0.5             = b5                  
 0.5             = b5                  
 Default         = A1                  
 Default         = A2                  
 Default         = A5                  
 18.269          = S1                  
 -11.324         = S2                  
 18.269          = S3                  
 -11.324         = S4                  
 1.9408          = Cn1                 
 -0.8            = Cn2                 
 Default         = St_sh               
 0.0016          = Cd0                 
 -0.0328         = Cm0                 
 0               = k0                  
 0               = k1                  
 0               = k2                  
 0               = k3                  
 0               = k1_hat              
 Default         = x_cp_bar            
 DEFAULT         = UACutout            
 DEFAULT         = filtCutOff          
 63              = NumAlf              
-180 	0.0 	0.1748	0.0                 0.0
-170 	0.23 	0.2116 	0.4                 0.0
-160 	0.46 	0.3172 	0.1018              0.0
-150 	0.494 	0.4784 	0.1333              0.0
-140 	0.51 	0.6743 	0.1727              0.0
-130 	0.486 	0.8799 	0.2132              0.0
-120 	0.415 	1.0684 	0.2498              0.0
-110 	0.302 	1.2148 	0.2779              0.0
-100 	0.159 	1.2989 	0.2933              0.0
-90 	0	1.308	0.2936              0.0
-80 	-0.159 	1.2989 	0.2933              0.0
-70 	-0.302 	1.2148 	0.2779              0.0
-60 	-0.415 	1.0684 	0.2498              0.0
-50 	-0.486 	0.8799 	0.2132              0.0
-40	-0.51 	0.6743 	0.1727              0.0
-30 	-0.494 	0.4784 	0.1333              0.0
-21.1	-0.56 	0.3027 	0.0612              0.0
-19.1 	-0.67 	0.3069 	0.0904              0.0
-17.1 	-0.79 	0.1928 	0.0293              0.0
-15.2 	-0.84 	0.0898 	-0.009              0.0
-13.2 	-0.7 	0.0553 	-0.0045             0.0
-11.1 	-0.63 	0.039 	-0.0044             0.0
-9.2 	-0.56	0.0233 	-0.0051             0.0
-7.1 	-0.64 	0.0131 	0.0018              0.0
-5.1 	-0.42 	0.0134 	-0.0216             0.0
-3.1 	-0.21 	0.0119 	-0.0282             0.0
-0.9 	0.05 	.0122 	-0.0346             0.0
1 	0.3 	0.0116 	-0.0405             0.0
3.1 	0.54 	0.0144 	-0.0455             0.0
5.2 	0.777	0.0146 	-0.0507             0.0
6.15 	0.854 	0.0154 	-0.04555            0.0
7.1 	0.906 	0.0162 	-0.0404             0.0
8.15 	0.888 	0.0266	-0.03625            0.0
9.2 	0.91 	0.037 	-0.0321             0.0
10.3 	0.927	0.045 	-0.0281             0.0
11.18 	0.948 	0.052 	-0.0284             0.0
12.2 	0.957 	0.067 	-0.0322             0.0
13.2 	0.987 	0.074 	-0.0361             0.0
14.3 	1.009	0.089 	-0.0363             0.0
15.3 	0.948 	0.112 	-0.0393             0.0
16.1 	0.918 	0.123 	-0.0398             0.0
17.1 	0.815 	0.175 	-0.0983             0.0
18.1 	0.7 	0.257 	-0.1242             0.0
19.1 	0.627 	0.305 	-0.1155             0.0
25 	0.528 	0.454 	-0.186083486        0.0
30 	0.631	0.4784 	-0.2459             0.0
35 	0.592 	0.524 	-0.2636             0.0
40 	0.554 	0.554 	-0.2813             0.0
45 	0.506 	0.61 	-0.29735            0.0
50 	0.442 	0.807 	-0.3134             0.0
60 	0.296 	0.987 	-0.3388             0.0
70 	0.193 	1.172 	-0.3557             0.0
80 	0.082 	1.236 	-0.363              0.0
90 	0 	1.249 	-0.3604             0.0
100 	-0.159 	1.2989 	-0.36               0.0
110 	-0.302 	1.2148 	-0.3446             0.0
120 	-0.415 	1.0684 	-0.3166             0.0
130 	-0.486 	0.8799 	-0.28               0.0
140 	-0.51 	0.6743 	-0.2394             0.0
150 	-0.494 	0.4784 	-0.2001             0.0
160 	-0.46 	0.3172 	-0.1685             0.0
170 	-0.23 	0.2116 	-0.5                0.0
180 	0.0 	0.1748	0.0                 0.0
--
Contents of "input/ad_airfoil_example.inp":
 DEFAULT         = InterpOrd           
 1               = NonDimArea          
 67              = NumCoords           
0.25       0
1.000000   0.000000
0.996203   0.000487
0.985190   0.002373
0.967844   0.005960
0.945073   0.011024
0.917488   0.017033
0.885293   0.023458
0.848455   0.030280
0.807470   0.037766
0.763042   0.045974
0.715952   0.054872
0.667064   0.064353
0.617331   0.074214
0.567830   0.084095
0.519832   0.093268
0.474243   0.099392
0.428461   0.101760
0.382612   0.101840
0.337260   0.100070
0.292970   0.096703
0.250247   0.091908
0.209576   0.085851
0.171409   0.078687
0.136174   0.070580
0.104263   0.061697
0.076035   0.052224
0.051823   0.042352
0.031910   0.032299
0.016590   0.022290
0.006026   0.012615
0.000658   0.003723
0.000204   0.001942
0.000000  -0.000020
0.000213  -0.001794
0.001045  -0.003477
0.001208  -0.003724
0.002398  -0.005266
0.009313  -0.011499
0.023230  -0.020399
0.042320  -0.030269
0.065877  -0.040821
0.093426  -0.051923
0.124111  -0.063082
0.157653  -0.073730
0.193738  -0.083567
0.231914  -0.092442
0.271438  -0.099905
0.311968  -0.105281
0.353370  -0.108181
0.395329  -0.108011
0.438273  -0.104552
0.481920  -0.097347
0.527928  -0.086571
0.576211  -0.073979
0.626092  -0.060644
0.676744  -0.047441
0.727211  -0.035100
0.776432  -0.024204
0.823285  -0.015163
0.866630  -0.008204
0.905365  -0.003363
0.938474  -0.000487
0.965086   0.000743
0.984478   0.000775
0.996141   0.000290
1.000000   0.000000
 1               = NumTabs             
 0.75            = Re                  
 0               = Ctrl                
 true            = InclUAdata          
 -0.38           = alpha0              
 15.3            = alpha1              
 -15.3           = alpha2              
 1               = eta_e               
 7.12499         = C_nalpha            
 2               = T_f0                
 2               = T_f0                
 7               = T_V0                
 7               = T_V0                
 1.6             = T_p                 
 1.6             = T_p                 
 9               = T_VL                
 9               = T_VL                
 Default         = b1                  
 Default         = b2                  
 0.5             = b5                  
 0.5             = b5                  
 Default         = A1                  
 Default         = A2                  
 Default         = A5                  
 18.269          = S1                  
 -11.324         = S2                  
 18.269          = S3                  
 -11.324         = S4                  
 1.9408          = Cn1                 
 -0.8            = Cn2                 
 Default         = St_sh               
 0.0016          = Cd0                 
 -0.0328         = Cm0                 
 0               = k0                  
 0               = k1                  
 0               = k2                  
 0               = k3                  
 0               = k1_hat              
 Default         = x_cp_bar            
 DEFAULT         = UACutout            
 DEFAULT         = filtCutOff          
 63              = NumAlf              
-180 	0.0 	0.1748	0.0                 0.0
-170 	0.23 	0.2116 	0.4                 0.0
-160 	0.46 	0.3172 	0.1018              0.0
-150 	0.494 	0.4784 	0.1333              0.0
-140 	0.51 	0.6743 	0.1727              0.0
-130 	0.486 	0.8799 	0.2132              0.0
-120 	0.415 	1.0684 	0.2498              0.0
-110 	0.302 	1.2148 	0.2779              0.0
-100 	0.159 	1.2989 	0.2933              0.0
-90 	0	1.308	0.2936              0.0
-80 	-0.159 	1.2989 	0.2933              0.0
-70 	-0.302 	1.2148 	0.2779              0.0
-60 	-0.415 	1.0684 	0.2498              0.0
-50 	-0.486 	0.8799 	0.2132              0.0
-40	-0.51 	0.6743 	0.1727              0.0
-30 	-0.494 	0.4784 	0.1333              0.0
-21.1	-0.56 	0.3027 	0.0612              0.0
-19.1 	-0.67 	0.3069 	0.0904              0.0
-17.1 	-0.79 	0.1928 	0.0293              0.0
-15.2 	-0.84 	0.0898 	-0.009              0.0
-13.2 	-0.7 	0.0553 	-0.0045             0.0
-11.1 	-0.63 	0.039 	-0.0044             0.0
-9.2 	-0.56	0.0233 	-0.0051             0.0
-7.1 	-0.64 	0.0131 	0.0018              0.0
-5.1 	-0.42 	0.0134 	-0.0216             0.0
-3.1 	-0.21 	0.0119 	-0.0282             0.0
-0.9 	0.05 	.0122 	-0.0346             0.0
1 	0.3 	0.0116 	-0.0405             0.0
3.1 	0.54 	0.0144 	-0.0455             0.0
5.2 	0.777	0.0146 	-0.0507             0.0
6.15 	0.854 	0.0154 	-0.04555            0.0
7.1 	0.906 	0.0162 	-0.0404             0.0
8.15 	0.888 	0.0266	-0.03625            0.0
9.2 	0.91 	0.037 	-0.0321             0.0
10.3 	0.927	0.045 	-0.0281             0.0
11.18 	0.948 	0.052 	-0.0284             0.0
12.2 	0.957 	0.067 	-0.0322             0.0
13.2 	0.987 	0.074 	-0.0361             0.0
14.3 	1.009	0.089 	-0.0363             0.0
15.3 	0.948 	0.112 	-0.0393             0.0
16.1 	0.918 	0.123 	-0.0398             0.0
17.1 	0.815 	0.175 	-0.0983             0.0
18.1 	0.7 	0.257 	-0.1242             0.0
19.1 	0.627 	0.305 	-0.1155             0.0
25 	0.528 	0.454 	-0.186083486        0.0
30 	0.631	0.4784 	-0.2459             0.0
35 	0.592 	0.524 	-0.2636             0.0
40 	0.554 	0.554 	-0.2813             0.0
45 	0.506 	0.61 	-0.29735            0.0
50 	0.442 	0.807 	-0.3134             0.0
60 	0.296 	0.987 	-0.3388             0.0
70 	0.193 	1.172 	-0.3557             0.0
80 	0.082 	1.236 	-0.363              0.0
90 	0 	1.249 	-0.3604             0.0
100 	-0.159 	1.2989 	-0.36               0.0
110 	-0.302 	1.2148 	-0.3446             0.0
120 	-0.415 	1.0684 	-0.3166             0.0
130 	-0.486 	0.8799 	-0.28               0.0
140 	-0.51 	0.6743 	-0.2394             0.0
150 	-0.494 	0.4784 	-0.2001             0.0
160 	-0.46 	0.3172 	-0.1685             0.0
170 	-0.23 	0.2116 	-0.5                0.0
180 	0.0 	0.1748	0.0                 0.0
--
Contents of "input/ad_airfoil_example.inp":
 DEFAULT         = InterpOrd           
 1               = NonDimArea          
 67              = NumCoords           
0.25       0
1.000000   0.000000
0.996203   0.000487
0.985190   0.002373
0.967844   0.005960
0.945073   0.011024
0.917488   0.017033
0.885293   0.023458
0.848455   0.030280
0.807470   0.037766
0.763042   0.045974
0.715952   0.054872
0.667064   0.064353
0.617331   0.074214
0.567830   0.084095
0.519832   0.093268
0.474243   0.099392
0.428461   0.101760
0.382612   0.101840
0.337260   0.100070
0.292970   0.096703
0.250247   0.091908
0.209576   0.085851
0.171409   0.078687
0.136174   0.070580
0.104263   0.061697
0.076035   0.052224
0.051823   0.042352
0.031910   0.032299
0.016590   0.022290
0.006026   0.012615
0.000658   0.003723
0.000204   0.001942
0.000000  -0.000020
0.000213  -0.001794
0.001045  -0.003477
0.001208  -0.003724
0.002398  -0.005266
0.009313  -0.011499
0.023230  -0.020399
0.042320  -0.030269
0.065877  -0.040821
0.093426  -0.051923
0.124111  -0.063082
0.157653  -0.073730
0.193738  -0.083567
0.231914  -0.092442
0.271438  -0.099905
0.311968  -0.105281
0.353370  -0.108181
0.395329  -0.108011
0.438273  -0.104552
0.481920  -0.097347
0.527928  -0.086571
0.576211  -0.073979
0.626092  -0.060644
0.676744  -0.047441
0.727211  -0.035100
0.776432  -0.024204
0.823285  -0.015163
0.866630  -0.008204
0.905365  -0.003363
0.938474  -0.000487
0.965086   0.000743
0.984478   0.000775
0.996141   0.000290
1.000000   0.000000
 1               = NumTabs             
 0.75            = Re                  
 0               = Ctrl                
 true            = InclUAdata          
 -0.38           = alpha0              
 15.3            = alpha1              
 -15.3           = alpha2              
 1               = eta_e               
 7.12499         = C_nalpha            
 2               = T_f0                
 2               = T_f0                
 7               = T_V0                
 7               = T_V0                
 1.6             = T_p                 
 1.6             = T_p                 
 9               = T_VL                
 9               = T_VL                
 Default         = b1                  
 Default         = b2                  
 0.5             = b5                  
 0.5             = b5                  
 Default         = A1                  
 Default         = A2                  
 Default         = A5                  
 18.269          = S1                  
 -11.324         = S2                  
 18.269          = S3                  
 -11.324         = S4                  
 1.9408          = Cn1                 
 -0.8            = Cn2                 
 Default         = St_sh               
 0.0016          = Cd0                 
 -0.0328         = Cm0                 
 0               = k0                  
 0               = k1                  
 0               = k2                  
 0               = k3                  
 0               = k1_hat              
 Default         = x_cp_bar            
 DEFAULT         = UACutout            
 DEFAULT         = filtCutOff          
 63              = NumAlf              
-180 	0.0 	0.1748	0.0                 0.0
-170 	0.23 	0.2116 	0.4                 0.0
-160 	0.46 	0.3172 	0.1018              0.0
-150 	0.494 	0.4784 	0.1333              0.0
-140 	0.51 	0.6743 	0.1727              0.0
-130 	0.486 	0.8799 	0.2132              0.0
-120 	0.415 	1.0684 	0.2498              0.0
-110 	0.302 	1.2148 	0.2779              0.0
-100 	0.159 	1.2989 	0.2933              0.0
-90 	0	1.308	0.2936              0.0
-80 	-0.159 	1.2989 	0.2933              0.0
-70 	-0.302 	1.2148 	0.2779              0.0
-60 	-0.415 	1.0684 	0.2498              0.0
-50 	-0.486 	0.8799 	0.2132              0.0
-40	-0.51 	0.6743 	0.1727              0.0
-30 	-0.494 	0.4784 	0.1333              0.0
-21.1	-0.56 	0.3027 	0.0612              0.0
-19.1 	-0.67 	0.3069 	0.0904              0.0
-17.1 	-0.79 	0.1928 	0.0293              0.0
-15.2 	-0.84 	0.0898 	-0.009              0.0
-13.2 	-0.7 	0.0553 	-0.0045             0.0
-11.1 	-0.63 	0.039 	-0.0044             0.0
-9.2 	-0.56	0.0233 	-0.0051             0.0
-7.1 	-0.64 	0.0131 	0.0018              0.0
-5.1 	-0.42 	0.0134 	-0.0216             0.0
-3.1 	-0.21 	0.0119 	-0.0282             0.0
-0.9 	0.05 	.0122 	-0.0346             0.0
1 	0.3 	0.0116 	-0.0405             0.0
3.1 	0.54 	0.0144 	-0.0455             0.0
5.2 	0.777	0.0146 	-0.0507             0.0
6.15 	0.854 	0.0154 	-0.04555            0.0
7.1 	0.906 	0.0162 	-0.0404             0.0
8.15 	0.888 	0.0266	-0.03625            0.0
9.2 	0.91 	0.037 	-0.0321             0.0
10.3 	0.927	0.045 	-0.0281             0.0
11.18 	0.948 	0.052 	-0.0284             0.0
12.2 	0.957 	0.067 	-0.0322             0.0
13.2 	0.987 	0.074 	-0.0361             0.0
14.3 	1.009	0.089 	-0.0363             0.0
15.3 	0.948 	0.112 	-0.0393             0.0
16.1 	0.918 	0.123 	-0.0398             0.0
17.1 	0.815 	0.175 	-0.0983             0.0
18.1 	0.7 	0.257 	-0.1242             0.0
19.1 	0.627 	0.305 	-0.1155             0.0
25 	0.528 	0.454 	-0.186083486        0.0
30 	0.631	0.4784 	-0.2459             0.0
35 	0.592 	0.524 	-0.2636             0.0
40 	0.554 	0.554 	-0.2813             0.0
45 	0.506 	0.61 	-0.29735            0.0
50 	0.442 	0.807 	-0.3134             0.0
60 	0.296 	0.987 	-0.3388             0.0
70 	0.193 	1.172 	-0.3557             0.0
80 	0.082 	1.236 	-0.363              0.0
90 	0 	1.249 	-0.3604             0.0
100 	-0.159 	1.2989 	-0.36               0.0
110 	-0.302 	1.2148 	-0.3446             0.0
120 	-0.415 	1.0684 	-0.3166             0.0
130 	-0.486 	0.8799 	-0.28               0.0
140 	-0.51 	0.6743 	-0.2394             0.0
150 	-0.494 	0.4784 	-0.2001             0.0
160 	-0.46 	0.3172 	-0.1685             0.0
170 	-0.23 	0.2116 	-0.5                0.0
180 	0.0 	0.1748	0.0                 0.0
--
Contents of "input/ad_airfoil_example.inp":
 DEFAULT         = InterpOrd           
 1               = NonDimArea          
 67              = NumCoords           
0.25       0
1.000000   0.000000
0.996203   0.000487
0.985190   0.002373
0.967844   0.005960
0.945073   0.011024
0.917488   0.017033
0.885293   0.023458
0.848455   0.030280
0.807470   0.037766
0.763042   0.045974
0.715952   0.054872
0.667064   0.064353
0.617331   0.074214
0.567830   0.084095
0.519832   0.093268
0.474243   0.099392
0.428461   0.101760
0.382612   0.101840
0.337260   0.100070
0.292970   0.096703
0.250247   0.091908
0.209576   0.085851
0.171409   0.078687
0.136174   0.070580
0.104263   0.061697
0.076035   0.052224
0.051823   0.042352
0.031910   0.032299
0.016590   0.022290
0.006026   0.012615
0.000658   0.003723
0.000204   0.001942
0.000000  -0.000020
0.000213  -0.001794
0.001045  -0.003477
0.001208  -0.003724
0.002398  -0.005266
0.009313  -0.011499
0.023230  -0.020399
0.042320  -0.030269
0.065877  -0.040821
0.093426  -0.051923
0.124111  -0.063082
0.157653  -0.073730
0.193738  -0.083567
0.231914  -0.092442
0.271438  -0.099905
0.311968  -0.105281
0.353370  -0.108181
0.395329  -0.108011
0.438273  -0.104552
0.481920  -0.097347
0.527928  -0.086571
0.576211  -0.073979
0.626092  -0.060644
0.676744  -0.047441
0.727211  -0.035100
0.776432  -0.024204
0.823285  -0.015163
0.866630  -0.008204
0.905365  -0.003363
0.938474  -0.000487
0.965086   0.000743
0.984478   0.000775
0.996141   0.000290
1.000000   0.000000
 1               = NumTabs             
 0.75            = Re                  
 0               = Ctrl                
 true            = InclUAdata          
 -0.38           = alpha0              
 15.3            = alpha1              
 -15.3           = alpha2              
 1               = eta_e               
 7.12499         = C_nalpha            
 2               = T_f0                
 2               = T_f0                
 7               = T_V0                
 7               = T_V0                
 1.6             = T_p                 
 1.6             = T_p                 
 9               = T_VL                
 9               = T_VL                
 Default         = b1                  
 Default         = b2                  
 0.5             = b5                  
 0.5             = b5                  
 Default         = A1                  
 Default         = A2                  
 Default         = A5                  
 18.269          = S1                  
 -11.324         = S2                  
 18.269          = S3                  
 -11.324         = S4                  
 1.9408          = Cn1                 
 -0.8            = Cn2                 
 Default         = St_sh               
 0.0016          = Cd0                 
 -0.0328         = Cm0                 
 0               = k0                  
 0               = k1                  
 0               = k2                  
 0               = k3                  
 0               = k1_hat              
 Default         = x_cp_bar            
 DEFAULT         = UACutout            
 DEFAULT         = filtCutOff          
 63              = NumAlf              
-180 	0.0 	0.1748	0.0                 0.0
-170 	0.23 	0.2116 	0.4                 0.0
-160 	0.46 	0.3172 	0.1018              0.0
-150 	0.494 	0.4784 	0.1333              0.0
-140 	0.51 	0.6743 	0.1727              0.0
-130 	0.486 	0.8799 	0.2132              0.0
-120 	0.415 	1.0684 	0.2498              0.0
-110 	0.302 	1.2148 	0.2779              0.0
-100 	0.159 	1.2989 	0.2933              0.0
-90 	0	1.308	0.2936              0.0
-80 	-0.159 	1.2989 	0.2933              0.0
-70 	-0.302 	1.2148 	0.2779              0.0
-60 	-0.415 	1.0684 	0.2498              0.0
-50 	-0.486 	0.8799 	0.2132              0.0
-40	-0.51 	0.6743 	0.1727              0.0
-30 	-0.494 	0.4784 	0.1333              0.0
-21.1	-0.56 	0.3027 	0.0612              0.0
-19.1 	-0.67 	0.3069 	0.0904              0.0
-17.1 	-0.79 	0.1928 	0.0293              0.0
-15.2 	-0.84 	0.0898 	-0.009              0.0
-13.2 	-0.7 	0.0553 	-0.0045             0.0
-11.1 	-0.63 	0.039 	-0.0044             0.0
-9.2 	-0.56	0.0233 	-0.0051             0.0
-7.1 	-0.64 	0.0131 	0.0018              0.0
-5.1 	-0.42 	0.0134 	-0.0216             0.0
-3.1 	-0.21 	0.0119 	-0.0282             0.0
-0.9 	0.05 	.0122 	-0.0346             0.0
1 	0.3 	0.0116 	-0.0405             0.0
3.1 	0.54 	0.0144 	-0.0455             0.0
5.2 	0.777	0.0146 	-0.0507             0.0
6.15 	0.854 	0.0154 	-0.04555            0.0
7.1 	0.906 	0.0162 	-0.0404             0.0
8.15 	0.888 	0.0266	-0.03625            0.0
9.2 	0.91 	0.037 	-0.0321             0.0
10.3 	0.927	0.045 	-0.0281             0.0
11.18 	0.948 	0.052 	-0.0284             0.0
12.2 	0.957 	0.067 	-0.0322             0.0
13.2 	0.987 	0.074 	-0.0361             0.0
14.3 	1.009	0.089 	-0.0363             0.0
15.3 	0.948 	0.112 	-0.0393             0.0
16.1 	0.918 	0.123 	-0.0398             0.0
17.1 	0.815 	0.175 	-0.0983             0.0
18.1 	0.7 	0.257 	-0.1242             0.0
19.1 	0.627 	0.305 	-0.1155             0.0
25 	0.528 	0.454 	-0.186083486        0.0
30 	0.631	0.4784 	-0.2459             0.0
35 	0.592 	0.524 	-0.2636             0.0
40 	0.554 	0.554 	-0.2813             0.0
45 	0.506 	0.61 	-0.29735            0.0
50 	0.442 	0.807 	-0.3134             0.0
60 	0.296 	0.987 	-0.3388             0.0
70 	0.193 	1.172 	-0.3557             0.0
80 	0.082 	1.236 	-0.363              0.0
90 	0 	1.249 	-0.3604             0.0
100 	-0.159 	1.2989 	-0.36               0.0
110 	-0.302 	1.2148 	-0.3446             0.0
120 	-0.415 	1.0684 	-0.3166             0.0
130 	-0.486 	0.8799 	-0.28               0.0
140 	-0.51 	0.6743 	-0.2394             0.0
150 	-0.494 	0.4784 	-0.2001             0.0
160 	-0.46 	0.3172 	-0.1685             0.0
170 	-0.23 	0.2116 	-0.5                0.0
180 	0.0 	0.1748	0.0                 0.0
--
Contents of "input/ad_airfoil_example.inp":
 DEFAULT         = InterpOrd           
 1               = NonDimArea          
 67              = NumCoords           
0.25       0
1.000000   0.000000
0.996203   0.000487
0.985190   0.002373
0.967844   0.005960
0.945073   0.011024
0.917488   0.017033
0.885293   0.023458
0.848455   0.030280
0.807470   0.037766
0.763042   0.045974
0.715952   0.054872
0.667064   0.064353
0.617331   0.074214
0.567830   0.084095
0.519832   0.093268
0.474243   0.099392
0.428461   0.101760
0.382612   0.101840
0.337260   0.100070
0.292970   0.096703
0.250247   0.091908
0.209576   0.085851
0.171409   0.078687
0.136174   0.070580
0.104263   0.061697
0.076035   0.052224
0.051823   0.042352
0.031910   0.032299
0.016590   0.022290
0.006026   0.012615
0.000658   0.003723
0.000204   0.001942
0.000000  -0.000020
0.000213  -0.001794
0.001045  -0.003477
0.001208  -0.003724
0.002398  -0.005266
0.009313  -0.011499
0.023230  -0.020399
0.042320  -0.030269
0.065877  -0.040821
0.093426  -0.051923
0.124111  -0.063082
0.157653  -0.073730
0.193738  -0.083567
0.231914  -0.092442
0.271438  -0.099905
0.311968  -0.105281
0.353370  -0.108181
0.395329  -0.108011
0.438273  -0.104552
0.481920  -0.097347
0.527928  -0.086571
0.576211  -0.073979
0.626092  -0.060644
0.676744  -0.047441
0.727211  -0.035100
0.776432  -0.024204
0.823285  -0.015163
0.866630  -0.008204
0.905365  -0.003363
0.938474  -0.000487
0.965086   0.000743
0.984478   0.000775
0.996141   0.000290
1.000000   0.000000
 1               = NumTabs             
 0.75            = Re                  
 0               = Ctrl                
 true            = InclUAdata          
 -0.38           = alpha0              
 15.3            = alpha1              
 -15.3           = alpha2              
 1               = eta_e               
 7.12499         = C_nalpha            
 2               = T_f0                
 2               = T_f0                
 7               = T_V0                
 7               = T_V0                
 1.6             = T_p                 
 1.6             = T_p                 
 9               = T_VL                
 9               = T_VL                
 Default         = b1                  
 Default         = b2                  
 0.5             = b5                  
 0.5             = b5                  
 Default         = A1                  
 Default         = A2                  
 Default         = A5                  
 18.269          = S1                  
 -11.324         = S2                  
 18.269          = S3                  
 -11.324         = S4                  
 1.9408          = Cn1                 
 -0.8            = Cn2                 
 Default         = St_sh               
 0.0016          = Cd0                 
 -0.0328         = Cm0                 
 0               = k0                  
 0               = k1                  
 0               = k2                  
 0               = k3                  
 0               = k1_hat              
 Default         = x_cp_bar            
 DEFAULT         = UACutout            
 DEFAULT         = filtCutOff          
 63              = NumAlf              
-180 	0.0 	0.1748	0.0                 0.0
-170 	0.23 	0.2116 	0.4                 0.0
-160 	0.46 	0.3172 	0.1018              0.0
-150 	0.494 	0.4784 	0.1333              0.0
-140 	0.51 	0.6743 	0.1727              0.0
-130 	0.486 	0.8799 	0.2132              0.0
-120 	0.415 	1.0684 	0.2498              0.0
-110 	0.302 	1.2148 	0.2779              0.0
-100 	0.159 	1.2989 	0.2933              0.0
-90 	0	1.308	0.2936              0.0
-80 	-0.159 	1.2989 	0.2933              0.0
-70 	-0.302 	1.2148 	0.2779              0.0
-60 	-0.415 	1.0684 	0.2498              0.0
-50 	-0.486 	0.8799 	0.2132              0.0
-40	-0.51 	0.6743 	0.1727              0.0
-30 	-0.494 	0.4784 	0.1333              0.0
-21.1	-0.56 	0.3027 	0.0612              0.0
-19.1 	-0.67 	0.3069 	0.0904              0.0
-17.1 	-0.79 	0.1928 	0.0293              0.0
-15.2 	-0.84 	0.0898 	-0.009              0.0
-13.2 	-0.7 	0.0553 	-0.0045             0.0
-11.1 	-0.63 	0.039 	-0.0044             0.0
-9.2 	-0.56	0.0233 	-0.0051             0.0
-7.1 	-0.64 	0.0131 	0.0018              0.0
-5.1 	-0.42 	0.0134 	-0.0216             0.0
-3.1 	-0.21 	0.0119 	-0.0282             0.0
-0.9 	0.05 	.0122 	-0.0346             0.0
1 	0.3 	0.0116 	-0.0405             0.0
3.1 	0.54 	0.0144 	-0.0455             0.0
5.2 	0.777	0.0146 	-0.0507             0.0
6.15 	0.854 	0.0154 	-0.04555            0.0
7.1 	0.906 	0.0162 	-0.0404             0.0
8.15 	0.888 	0.0266	-0.03625            0.0
9.2 	0.91 	0.037 	-0.0321             0.0
10.3 	0.927	0.045 	-0.0281             0.0
11.18 	0.948 	0.052 	-0.0284             0.0
12.2 	0.957 	0.067 	-0.0322             0.0
13.2 	0.987 	0.074 	-0.0361             0.0
14.3 	1.009	0.089 	-0.0363             0.0
15.3 	0.948 	0.112 	-0.0393             0.0
16.1 	0.918 	0.123 	-0.0398             0.0
17.1 	0.815 	0.175 	-0.0983             0.0
18.1 	0.7 	0.257 	-0.1242             0.0
19.1 	0.627 	0.305 	-0.1155             0.0
25 	0.528 	0.454 	-0.186083486        0.0
30 	0.631	0.4784 	-0.2459             0.0
35 	0.592 	0.524 	-0.2636             0.0
40 	0.554 	0.554 	-0.2813             0.0
45 	0.506 	0.61 	-0.29735            0.0
50 	0.442 	0.807 	-0.3134             0.0
60 	0.296 	0.987 	-0.3388             0.0
70 	0.193 	1.172 	-0.3557             0.0
80 	0.082 	1.236 	-0.363              0.0
90 	0 	1.249 	-0.3604             0.0
100 	-0.159 	1.2989 	-0.36               0.0
110 	-0.302 	1.2148 	-0.3446             0.0
120 	-0.415 	1.0684 	-0.3166             0.0
130 	-0.486 	0.8799 	-0.28               0.0
140 	-0.51 	0.6743 	-0.2394             0.0
150 	-0.494 	0.4784 	-0.2001             0.0
160 	-0.46 	0.3172 	-0.1685             0.0
170 	-0.23 	0.2116 	-0.5                0.0
180 	0.0 	0.1748	0.0                 0.0
--
Contents of "input/ad_airfoil_example.inp":
 DEFAULT         = InterpOrd           
 1               = NonDimArea          
 67              = NumCoords           
0.25       0
1.000000   0.000000
0.996203   0.000487
0.985190   0.002373
0.967844   0.005960
0.945073   0.011024
0.917488   0.017033
0.885293   0.023458
0.848455   0.030280
0.807470   0.037766
0.763042   0.045974
0.715952   0.054872
0.667064   0.064353
0.617331   0.074214
0.567830   0.084095
0.519832   0.093268
0.474243   0.099392
0.428461   0.101760
0.382612   0.101840
0.337260   0.100070
0.292970   0.096703
0.250247   0.091908
0.209576   0.085851
0.171409   0.078687
0.136174   0.070580
0.104263   0.061697
0.076035   0.052224
0.051823   0.042352
0.031910   0.032299
0.016590   0.022290
0.006026   0.012615
0.000658   0.003723
0.000204   0.001942
0.000000  -0.000020
0.000213  -0.001794
0.001045  -0.003477
0.001208  -0.003724
0.002398  -0.005266
0.009313  -0.011499
0.023230  -0.020399
0.042320  -0.030269
0.065877  -0.040821
0.093426  -0.051923
0.124111  -0.063082
0.157653  -0.073730
0.193738  -0.083567
0.231914  -0.092442
0.271438  -0.099905
0.311968  -0.105281
0.353370  -0.108181
0.395329  -0.108011
0.438273  -0.104552
0.481920  -0.097347
0.527928  -0.086571
0.576211  -0.073979
0.626092  -0.060644
0.676744  -0.047441
0.727211  -0.035100
0.776432  -0.024204
0.823285  -0.015163
0.866630  -0.008204
0.905365  -0.003363
0.938474  -0.000487
0.965086   0.000743
0.984478   0.000775
0.996141   0.000290
1.000000   0.000000
 1               = NumTabs             
 0.75            = Re                  
[...]
-50 	-0.486 	0.8799 	0.2132              0.0
-40	-0.51 	0.6743 	0.1727              0.0
-30 	-0.494 	0.4784 	0.1333              0.0
-21.1	-0.56 	0.3027 	0.0612              0.0
-19.1 	-0.67 	0.3069 	0.0904              0.0
-17.1 	-0.79 	0.1928 	0.0293              0.0
-15.2 	-0.84 	0.0898 	-0.009              0.0
-13.2 	-0.7 	0.0553 	-0.0045             0.0
-11.1 	-0.63 	0.039 	-0.0044             0.0
-9.2 	-0.56	0.0233 	-0.0051             0.0
-7.1 	-0.64 	0.0131 	0.0018              0.0
-5.1 	-0.42 	0.0134 	-0.0216             0.0
-3.1 	-0.21 	0.0119 	-0.0282             0.0
-0.9 	0.05 	.0122 	-0.0346             0.0
1 	0.3 	0.0116 	-0.0405             0.0
3.1 	0.54 	0.0144 	-0.0455             0.0
5.2 	0.777	0.0146 	-0.0507             0.0
6.15 	0.854 	0.0154 	-0.04555            0.0
7.1 	0.906 	0.0162 	-0.0404             0.0
8.15 	0.888 	0.0266	-0.03625            0.0
9.2 	0.91 	0.037 	-0.0321             0.0
10.3 	0.927	0.045 	-0.0281             0.0
11.18 	0.948 	0.052 	-0.0284             0.0
12.2 	0.957 	0.067 	-0.0322             0.0
13.2 	0.987 	0.074 	-0.0361             0.0
14.3 	1.009	0.089 	-0.0363             0.0
15.3 	0.948 	0.112 	-0.0393             0.0
16.1 	0.918 	0.123 	-0.0398             0.0
17.1 	0.815 	0.175 	-0.0983             0.0
18.1 	0.7 	0.257 	-0.1242             0.0
19.1 	0.627 	0.305 	-0.1155             0.0
25 	0.528 	0.454 	-0.186083486        0.0
30 	0.631	0.4784 	-0.2459             0.0
35 	0.592 	0.524 	-0.2636             0.0
40 	0.554 	0.554 	-0.2813             0.0
45 	0.506 	0.61 	-0.29735            0.0
50 	0.442 	0.807 	-0.3134             0.0
60 	0.296 	0.987 	-0.3388             0.0
70 	0.193 	1.172 	-0.3557             0.0
80 	0.082 	1.236 	-0.363              0.0
90 	0 	1.249 	-0.3604             0.0
100 	-0.159 	1.2989 	-0.36               0.0
110 	-0.302 	1.2148 	-0.3446             0.0
120 	-0.415 	1.0684 	-0.3166             0.0
130 	-0.486 	0.8799 	-0.28               0.0
140 	-0.51 	0.6743 	-0.2394             0.0
150 	-0.494 	0.4784 	-0.2001             0.0
160 	-0.46 	0.3172 	-0.1685             0.0
170 	-0.23 	0.2116 	-0.5                0.0
180 	0.0 	0.1748	0.0                 0.0
--
Contents of "input/ad_airfoil_example.inp":
 DEFAULT         = InterpOrd           
 1               = NonDimArea          
 67              = NumCoords           
0.25       0
1.000000   0.000000
0.996203   0.000487
0.985190   0.002373
0.967844   0.005960
0.945073   0.011024
0.917488   0.017033
0.885293   0.023458
0.848455   0.030280
0.807470   0.037766
0.763042   0.045974
0.715952   0.054872
0.667064   0.064353
0.617331   0.074214
0.567830   0.084095
0.519832   0.093268
0.474243   0.099392
0.428461   0.101760
0.382612   0.101840
0.337260   0.100070
0.292970   0.096703
0.250247   0.091908
0.209576   0.085851
0.171409   0.078687
0.136174   0.070580
0.104263   0.061697
0.076035   0.052224
0.051823   0.042352
0.031910   0.032299
0.016590   0.022290
0.006026   0.012615
0.000658   0.003723
0.000204   0.001942
0.000000  -0.000020
0.000213  -0.001794
0.001045  -0.003477
0.001208  -0.003724
0.002398  -0.005266
0.009313  -0.011499
0.023230  -0.020399
0.042320  -0.030269
0.065877  -0.040821
0.093426  -0.051923
0.124111  -0.063082
0.157653  -0.073730
0.193738  -0.083567
0.231914  -0.092442
0.271438  -0.099905
0.311968  -0.105281
0.353370  -0.108181
0.395329  -0.108011
0.438273  -0.104552
0.481920  -0.097347
0.527928  -0.086571
0.576211  -0.073979
0.626092  -0.060644
0.676744  -0.047441
0.727211  -0.035100
0.776432  -0.024204
0.823285  -0.015163
0.866630  -0.008204
0.905365  -0.003363
0.938474  -0.000487
0.965086   0.000743
0.984478   0.000775
0.996141   0.000290
1.000000   0.000000
 1               = NumTabs             
 0.75            = Re                  
 0               = Ctrl                
 true            = InclUAdata          
 -0.38           = alpha0              
 15.3            = alpha1              
 -15.3           = alpha2              
 1               = eta_e               
 7.12499         = C_nalpha            
 2               = T_f0                
 2               = T_f0                
 7               = T_V0                
 7               = T_V0                
 1.6             = T_p                 
 1.6             = T_p                 
 9               = T_VL                
 9               = T_VL                
 Default         = b1                  
 Default         = b2                  
 0.5             = b5                  
 0.5             = b5                  
 Default         = A1                  
 Default         = A2                  
 Default         = A5                  
 18.269          = S1                  
 -11.324         = S2                  
 18.269          = S3                  
 -11.324         = S4                  
 1.9408          = Cn1                 
 -0.8            = Cn2                 
 Default         = St_sh               
 0.0016          = Cd0                 
 -0.0328         = Cm0                 
 0               = k0                  
 0               = k1                  
 0               = k2                  
 0               = k3                  
 0               = k1_hat              
 Default         = x_cp_bar            
 DEFAULT         = UACutout            
 DEFAULT         = filtCutOff          
 63              = NumAlf              
-180 	0.0 	0.1748	0.0                 0.0
-170 	0.23 	0.2116 	0.4                 0.0
-160 	0.46 	0.3172 	0.1018              0.0
-150 	0.494 	0.4784 	0.1333              0.0
-140 	0.51 	0.6743 	0.1727              0.0
-130 	0.486 	0.8799 	0.2132              0.0
-120 	0.415 	1.0684 	0.2498              0.0
-110 	0.302 	1.2148 	0.2779              0.0
-100 	0.159 	1.2989 	0.2933              0.0
-90 	0	1.308	0.2936              0.0
-80 	-0.159 	1.2989 	0.2933              0.0
-70 	-0.302 	1.2148 	0.2779              0.0
-60 	-0.415 	1.0684 	0.2498              0.0
-50 	-0.486 	0.8799 	0.2132              0.0
-40	-0.51 	0.6743 	0.1727              0.0
-30 	-0.494 	0.4784 	0.1333              0.0
-21.1	-0.56 	0.3027 	0.0612              0.0
-19.1 	-0.67 	0.3069 	0.0904              0.0
-17.1 	-0.79 	0.1928 	0.0293              0.0
-15.2 	-0.84 	0.0898 	-0.009              0.0
-13.2 	-0.7 	0.0553 	-0.0045             0.0
-11.1 	-0.63 	0.039 	-0.0044             0.0
-9.2 	-0.56	0.0233 	-0.0051             0.0
-7.1 	-0.64 	0.0131 	0.0018              0.0
-5.1 	-0.42 	0.0134 	-0.0216             0.0
-3.1 	-0.21 	0.0119 	-0.0282             0.0
-0.9 	0.05 	.0122 	-0.0346             0.0
1 	0.3 	0.0116 	-0.0405             0.0
3.1 	0.54 	0.0144 	-0.0455             0.0
5.2 	0.777	0.0146 	-0.0507             0.0
6.15 	0.854 	0.0154 	-0.04555            0.0
7.1 	0.906 	0.0162 	-0.0404             0.0
8.15 	0.888 	0.0266	-0.03625            0.0
9.2 	0.91 	0.037 	-0.0321             0.0
10.3 	0.927	0.045 	-0.0281             0.0
11.18 	0.948 	0.052 	-0.0284             0.0
12.2 	0.957 	0.067 	-0.0322             0.0
13.2 	0.987 	0.074 	-0.0361             0.0
14.3 	1.009	0.089 	-0.0363             0.0
15.3 	0.948 	0.112 	-0.0393             0.0
16.1 	0.918 	0.123 	-0.0398             0.0
17.1 	0.815 	0.175 	-0.0983             0.0
18.1 	0.7 	0.257 	-0.1242             0.0
19.1 	0.627 	0.305 	-0.1155             0.0
25 	0.528 	0.454 	-0.186083486        0.0
30 	0.631	0.4784 	-0.2459             0.0
35 	0.592 	0.524 	-0.2636             0.0
40 	0.554 	0.554 	-0.2813             0.0
45 	0.506 	0.61 	-0.29735            0.0
50 	0.442 	0.807 	-0.3134             0.0
60 	0.296 	0.987 	-0.3388             0.0
70 	0.193 	1.172 	-0.3557             0.0
80 	0.082 	1.236 	-0.363              0.0
90 	0 	1.249 	-0.3604             0.0
100 	-0.159 	1.2989 	-0.36               0.0
110 	-0.302 	1.2148 	-0.3446             0.0
120 	-0.415 	1.0684 	-0.3166             0.0
130 	-0.486 	0.8799 	-0.28               0.0
140 	-0.51 	0.6743 	-0.2394             0.0
150 	-0.494 	0.4784 	-0.2001             0.0
160 	-0.46 	0.3172 	-0.1685             0.0
170 	-0.23 	0.2116 	-0.5                0.0
180 	0.0 	0.1748	0.0                 0.0
--
Contents of "input/ad_airfoil_example.inp":
 DEFAULT         = InterpOrd           
 1               = NonDimArea          
 67              = NumCoords           
0.25       0
1.000000   0.000000
0.996203   0.000487
0.985190   0.002373
0.967844   0.005960
0.945073   0.011024
0.917488   0.017033
0.885293   0.023458
0.848455   0.030280
0.807470   0.037766
0.763042   0.045974
0.715952   0.054872
0.667064   0.064353
0.617331   0.074214
0.567830   0.084095
0.519832   0.093268
0.474243   0.099392
0.428461   0.101760
0.382612   0.101840
0.337260   0.100070
0.292970   0.096703
0.250247   0.091908
0.209576   0.085851
0.171409   0.078687
0.136174   0.070580
0.104263   0.061697
0.076035   0.052224
0.051823   0.042352
0.031910   0.032299
0.016590   0.022290
0.006026   0.012615
0.000658   0.003723
0.000204   0.001942
0.000000  -0.000020
0.000213  -0.001794
0.001045  -0.003477
0.001208  -0.003724
0.002398  -0.005266
0.009313  -0.011499
0.023230  -0.020399
0.042320  -0.030269
0.065877  -0.040821
0.093426  -0.051923
0.124111  -0.063082
0.157653  -0.073730
0.193738  -0.083567
0.231914  -0.092442
0.271438  -0.099905
0.311968  -0.105281
0.353370  -0.108181
0.395329  -0.108011
0.438273  -0.104552
0.481920  -0.097347
0.527928  -0.086571
0.576211  -0.073979
0.626092  -0.060644
0.676744  -0.047441
0.727211  -0.035100
0.776432  -0.024204
0.823285  -0.015163
0.866630  -0.008204
0.905365  -0.003363
0.938474  -0.000487
0.965086   0.000743
0.984478   0.000775
0.996141   0.000290
1.000000   0.000000
 1               = NumTabs             
 0.75            = Re                  
 0               = Ctrl                
 true            = InclUAdata          
 -0.38           = alpha0              
 15.3            = alpha1              
 -15.3           = alpha2              
 1               = eta_e               
 7.12499         = C_nalpha            
 2               = T_f0                
 2               = T_f0                
 7               = T_V0                
 7               = T_V0                
 1.6             = T_p                 
 1.6             = T_p                 
 9               = T_VL                
 9               = T_VL                
 Default         = b1                  
 Default         = b2                  
 0.5             = b5                  
 0.5             = b5                  
 Default         = A1                  
 Default         = A2                  
 Default         = A5                  
 18.269          = S1                  
 -11.324         = S2                  
 18.269          = S3                  
 -11.324         = S4                  
 1.9408          = Cn1                 
 -0.8            = Cn2                 
 Default         = St_sh               
 0.0016          = Cd0                 
 -0.0328         = Cm0                 
 0               = k0                  
 0               = k1                  
 0               = k2                  
 0               = k3                  
 0               = k1_hat              
 Default         = x_cp_bar            
 DEFAULT         = UACutout            
 DEFAULT         = filtCutOff          
 63              = NumAlf              
-180 	0.0 	0.1748	0.0                 0.0
-170 	0.23 	0.2116 	0.4                 0.0
-160 	0.46 	0.3172 	0.1018              0.0
-150 	0.494 	0.4784 	0.1333              0.0
-140 	0.51 	0.6743 	0.1727              0.0
-130 	0.486 	0.8799 	0.2132              0.0
-120 	0.415 	1.0684 	0.2498              0.0
-110 	0.302 	1.2148 	0.2779              0.0
-100 	0.159 	1.2989 	0.2933              0.0
-90 	0	1.308	0.2936              0.0
-80 	-0.159 	1.2989 	0.2933              0.0
-70 	-0.302 	1.2148 	0.2779              0.0
-60 	-0.415 	1.0684 	0.2498              0.0
-50 	-0.486 	0.8799 	0.2132              0.0
-40	-0.51 	0.6743 	0.1727              0.0
-30 	-0.494 	0.4784 	0.1333              0.0
-21.1	-0.56 	0.3027 	0.0612              0.0
-19.1 	-0.67 	0.3069 	0.0904              0.0
-17.1 	-0.79 	0.1928 	0.0293              0.0
-15.2 	-0.84 	0.0898 	-0.009              0.0
-13.2 	-0.7 	0.0553 	-0.0045             0.0
-11.1 	-0.63 	0.039 	-0.0044             0.0
-9.2 	-0.56	0.0233 	-0.0051             0.0
-7.1 	-0.64 	0.0131 	0.0018              0.0
-5.1 	-0.42 	0.0134 	-0.0216             0.0
-3.1 	-0.21 	0.0119 	-0.0282             0.0
-0.9 	0.05 	.0122 	-0.0346             0.0
1 	0.3 	0.0116 	-0.0405             0.0
3.1 	0.54 	0.0144 	-0.0455             0.0
5.2 	0.777	0.0146 	-0.0507             0.0
6.15 	0.854 	0.0154 	-0.04555            0.0
7.1 	0.906 	0.0162 	-0.0404             0.0
8.15 	0.888 	0.0266	-0.03625            0.0
9.2 	0.91 	0.037 	-0.0321             0.0
10.3 	0.927	0.045 	-0.0281             0.0
11.18 	0.948 	0.052 	-0.0284             0.0
12.2 	0.957 	0.067 	-0.0322             0.0
13.2 	0.987 	0.074 	-0.0361             0.0
14.3 	1.009	0.089 	-0.0363             0.0
15.3 	0.948 	0.112 	-0.0393             0.0
16.1 	0.918 	0.123 	-0.0398             0.0
17.1 	0.815 	0.175 	-0.0983             0.0
18.1 	0.7 	0.257 	-0.1242             0.0
19.1 	0.627 	0.305 	-0.1155             0.0
25 	0.528 	0.454 	-0.186083486        0.0
30 	0.631	0.4784 	-0.2459             0.0
35 	0.592 	0.524 	-0.2636             0.0
40 	0.554 	0.554 	-0.2813             0.0
45 	0.506 	0.61 	-0.29735            0.0
50 	0.442 	0.807 	-0.3134             0.0
60 	0.296 	0.987 	-0.3388             0.0
70 	0.193 	1.172 	-0.3557             0.0
80 	0.082 	1.236 	-0.363              0.0
90 	0 	1.249 	-0.3604             0.0
100 	-0.159 	1.2989 	-0.36               0.0
110 	-0.302 	1.2148 	-0.3446             0.0
120 	-0.415 	1.0684 	-0.3166             0.0
130 	-0.486 	0.8799 	-0.28               0.0
140 	-0.51 	0.6743 	-0.2394             0.0
150 	-0.494 	0.4784 	-0.2001             0.0
160 	-0.46 	0.3172 	-0.1685             0.0
170 	-0.23 	0.2116 	-0.5                0.0
180 	0.0 	0.1748	0.0                 0.0
--
Contents of "input/ad_airfoil_example.inp":
 DEFAULT         = InterpOrd           
 1               = NonDimArea          
 67              = NumCoords           
0.25       0
1.000000   0.000000
0.996203   0.000487
0.985190   0.002373
0.967844   0.005960
0.945073   0.011024
0.917488   0.017033
0.885293   0.023458
0.848455   0.030280
0.807470   0.037766
0.763042   0.045974
0.715952   0.054872
0.667064   0.064353
0.617331   0.074214
0.567830   0.084095
0.519832   0.093268
0.474243   0.099392
0.428461   0.101760
0.382612   0.101840
0.337260   0.100070
0.292970   0.096703
0.250247   0.091908
0.209576   0.085851
0.171409   0.078687
0.136174   0.070580
0.104263   0.061697
0.076035   0.052224
0.051823   0.042352
0.031910   0.032299
0.016590   0.022290
0.006026   0.012615
0.000658   0.003723
0.000204   0.001942
0.000000  -0.000020
0.000213  -0.001794
0.001045  -0.003477
0.001208  -0.003724
0.002398  -0.005266
0.009313  -0.011499
0.023230  -0.020399
0.042320  -0.030269
0.065877  -0.040821
0.093426  -0.051923
0.124111  -0.063082
0.157653  -0.073730
0.193738  -0.083567
0.231914  -0.092442
0.271438  -0.099905
0.311968  -0.105281
0.353370  -0.108181
0.395329  -0.108011
0.438273  -0.104552
0.481920  -0.097347
0.527928  -0.086571
0.576211  -0.073979
0.626092  -0.060644
0.676744  -0.047441
0.727211  -0.035100
0.776432  -0.024204
0.823285  -0.015163
0.866630  -0.008204
0.905365  -0.003363
0.938474  -0.000487
0.965086   0.000743
0.984478   0.000775
0.996141   0.000290
1.000000   0.000000
 1               = NumTabs             
 0.75            = Re                  
 0               = Ctrl                
 true            = InclUAdata          
 -0.38           = alpha0              
 15.3            = alpha1              
 -15.3           = alpha2              
 1               = eta_e               
 7.12499         = C_nalpha            
 2               = T_f0                
 2               = T_f0                
 7               = T_V0                
 7               = T_V0                
 1.6             = T_p                 
 1.6             = T_p                 
 9               = T_VL                
 9               = T_VL                
 Default         = b1                  
 Default         = b2                  
 0.5             = b5                  
 0.5             = b5                  
 Default         = A1                  
 Default         = A2                  
 Default         = A5                  
 18.269          = S1                  
 -11.324         = S2                  
 18.269          = S3                  
 -11.324         = S4                  
 1.9408          = Cn1                 
 -0.8            = Cn2                 
 Default         = St_sh               
 0.0016          = Cd0                 
 -0.0328         = Cm0                 
 0               = k0                  
 0               = k1                  
 0               = k2                  
 0               = k3                  
 0               = k1_hat              
 Default         = x_cp_bar            
 DEFAULT         = UACutout            
 DEFAULT         = filtCutOff          
 63              = NumAlf              
-180 	0.0 	0.1748	0.0                 0.0
-170 	0.23 	0.2116 	0.4                 0.0
-160 	0.46 	0.3172 	0.1018              0.0
-150 	0.494 	0.4784 	0.1333              0.0
-140 	0.51 	0.6743 	0.1727              0.0
-130 	0.486 	0.8799 	0.2132              0.0
-120 	0.415 	1.0684 	0.2498              0.0
-110 	0.302 	1.2148 	0.2779              0.0
-100 	0.159 	1.2989 	0.2933              0.0
-90 	0	1.308	0.2936              0.0
-80 	-0.159 	1.2989 	0.2933              0.0
-70 	-0.302 	1.2148 	0.2779              0.0
-60 	-0.415 	1.0684 	0.2498              0.0
-50 	-0.486 	0.8799 	0.2132              0.0
-40	-0.51 	0.6743 	0.1727              0.0
-30 	-0.494 	0.4784 	0.1333              0.0
-21.1	-0.56 	0.3027 	0.0612              0.0
-19.1 	-0.67 	0.3069 	0.0904              0.0
-17.1 	-0.79 	0.1928 	0.0293              0.0
-15.2 	-0.84 	0.0898 	-0.009              0.0
-13.2 	-0.7 	0.0553 	-0.0045             0.0
-11.1 	-0.63 	0.039 	-0.0044             0.0
-9.2 	-0.56	0.0233 	-0.0051             0.0
-7.1 	-0.64 	0.0131 	0.0018              0.0
-5.1 	-0.42 	0.0134 	-0.0216             0.0
-3.1 	-0.21 	0.0119 	-0.0282             0.0
-0.9 	0.05 	.0122 	-0.0346             0.0
1 	0.3 	0.0116 	-0.0405             0.0
3.1 	0.54 	0.0144 	-0.0455             0.0
5.2 	0.777	0.0146 	-0.0507             0.0
6.15 	0.854 	0.0154 	-0.04555            0.0
7.1 	0.906 	0.0162 	-0.0404             0.0
8.15 	0.888 	0.0266	-0.03625            0.0
9.2 	0.91 	0.037 	-0.0321             0.0
10.3 	0.927	0.045 	-0.0281             0.0
11.18 	0.948 	0.052 	-0.0284             0.0
12.2 	0.957 	0.067 	-0.0322             0.0
13.2 	0.987 	0.074 	-0.0361             0.0
14.3 	1.009	0.089 	-0.0363             0.0
15.3 	0.948 	0.112 	-0.0393             0.0
16.1 	0.918 	0.123 	-0.0398             0.0
17.1 	0.815 	0.175 	-0.0983             0.0
18.1 	0.7 	0.257 	-0.1242             0.0
19.1 	0.627 	0.305 	-0.1155             0.0
25 	0.528 	0.454 	-0.186083486        0.0
30 	0.631	0.4784 	-0.2459             0.0
35 	0.592 	0.524 	-0.2636             0.0
40 	0.554 	0.554 	-0.2813             0.0
45 	0.506 	0.61 	-0.29735            0.0
50 	0.442 	0.807 	-0.3134             0.0
60 	0.296 	0.987 	-0.3388             0.0
70 	0.193 	1.172 	-0.3557             0.0
80 	0.082 	1.236 	-0.363              0.0
90 	0 	1.249 	-0.3604             0.0
100 	-0.159 	1.2989 	-0.36               0.0
110 	-0.302 	1.2148 	-0.3446             0.0
120 	-0.415 	1.0684 	-0.3166             0.0
130 	-0.486 	0.8799 	-0.28               0.0
140 	-0.51 	0.6743 	-0.2394             0.0
150 	-0.494 	0.4784 	-0.2001             0.0
160 	-0.46 	0.3172 	-0.1685             0.0
170 	-0.23 	0.2116 	-0.5                0.0
180 	0.0 	0.1748	0.0                 0.0
